134601
  -OEChem-07232414383D

 39 39  0     1  0  0  0  0  0999 V2000
   -1.8337    2.9115   -0.4575 O   0  0  0  0  0  0  0  0  0  0  0  0
    2.1213   -0.0281   -1.6083 O   0  0  0  0  0  0  0  0  0  0  0  0
   -0.9281    2.0358    1.4665 O   0  0  0  0  0  0  0  0  0  0  0  0
    5.6253    0.4131   -0.4127 O   0  0  0  0  0  0  0  0  0  0  0  0
    4.1389    0.9708    1.2123 O   0  0  0  0  0  0  0  0  0  0  0  0
    0.5352    0.1671    0.0723 N   0  0  0  0  0  0  0  0  0  0  0  0
    1.9540   -2.5588    0.2571 N   0  0  0  0  0  0  0  0  0  0  0  0
   -0.3657    1.0282   -0.6567 C   0  0  1  0  0  0  0  0  0  0  0  0
   -1.3701    0.2130   -1.4846 C   0  0  0  0  0  0  0  0  0  0  0  0
    2.4857   -1.2131    0.4761 C   0  0  2  0  0  0  0  0  0  0  0  0
   -2.3150   -0.6407   -0.6694 C   0  0  0  0  0  0  0  0  0  0  0  0
    1.7229   -0.2954   -0.4765 C   0  0  0  0  0  0  0  0  0  0  0  0
   -1.0587    2.0398    0.2466 C   0  0  0  0  0  0  0  0  0  0  0  0
    3.9887   -1.2164    0.1958 C   0  0  0  0  0  0  0  0  0  0  0  0
   -1.9526   -1.9395   -0.3540 C   0  0  0  0  0  0  0  0  0  0  0  0
   -3.5233   -0.1063   -0.2544 C   0  0  0  0  0  0  0  0  0  0  0  0
   -2.8240   -2.7271    0.3982 C   0  0  0  0  0  0  0  0  0  0  0  0
   -4.3947   -0.8940    0.4979 C   0  0  0  0  0  0  0  0  0  0  0  0
    4.5756    0.1586    0.4068 C   0  0  0  0  0  0  0  0  0  0  0  0
   -4.0450   -2.2044    0.8242 C   0  0  0  0  0  0  0  0  0  0  0  0
   -2.5367    3.8858    0.3204 C   0  0  0  0  0  0  0  0  0  0  0  0
    0.2467    1.6211   -1.3488 H   0  0  0  0  0  0  0  0  0  0  0  0
   -1.9631    0.8843   -2.1203 H   0  0  0  0  0  0  0  0  0  0  0  0
   -0.8274   -0.4345   -2.1872 H   0  0  0  0  0  0  0  0  0  0  0  0
    0.2702   -0.1236    1.0091 H   0  0  0  0  0  0  0  0  0  0  0  0
    2.2977   -0.9132    1.5135 H   0  0  0  0  0  0  0  0  0  0  0  0
    4.5133   -1.9106    0.8620 H   0  0  0  0  0  0  0  0  0  0  0  0
    4.1856   -1.5215   -0.8397 H   0  0  0  0  0  0  0  0  0  0  0  0
   -1.0113   -2.3603   -0.6923 H   0  0  0  0  0  0  0  0  0  0  0  0
   -3.8117    0.9091   -0.5082 H   0  0  0  0  0  0  0  0  0  0  0  0
    0.9541   -2.5729    0.4494 H   0  0  0  0  0  0  0  0  0  0  0  0
    2.0719   -2.8319   -0.7176 H   0  0  0  0  0  0  0  0  0  0  0  0
   -2.5530   -3.7484    0.6495 H   0  0  0  0  0  0  0  0  0  0  0  0
   -5.3463   -0.4877    0.8280 H   0  0  0  0  0  0  0  0  0  0  0  0
   -4.7240   -2.8181    1.4089 H   0  0  0  0  0  0  0  0  0  0  0  0
   -3.2243    3.3922    1.0138 H   0  0  0  0  0  0  0  0  0  0  0  0
   -3.1171    4.5115   -0.3628 H   0  0  0  0  0  0  0  0  0  0  0  0
   -1.8289    4.5201    0.8624 H   0  0  0  0  0  0  0  0  0  0  0  0
    5.9882    1.3139   -0.2742 H   0  0  0  0  0  0  0  0  0  0  0  0
  1 13  1  0  0  0  0
  1 21  1  0  0  0  0
  2 12  2  0  0  0  0
  3 13  2  0  0  0  0
  4 19  1  0  0  0  0
  4 39  1  0  0  0  0
  5 19  2  0  0  0  0
  6  8  1  0  0  0  0
  6 12  1  0  0  0  0
  6 25  1  0  0  0  0
  7 10  1  0  0  0  0
  7 31  1  0  0  0  0
  7 32  1  0  0  0  0
  8  9  1  0  0  0  0
  8 13  1  0  0  0  0
  8 22  1  0  0  0  0
  9 11  1  0  0  0  0
  9 23  1  0  0  0  0
  9 24  1  0  0  0  0
 10 12  1  0  0  0  0
 10 14  1  0  0  0  0
 10 26  1  0  0  0  0
 11 15  2  0  0  0  0
 11 16  1  0  0  0  0
 14 19  1  0  0  0  0
 14 27  1  0  0  0  0
 14 28  1  0  0  0  0
 15 17  1  0  0  0  0
 15 29  1  0  0  0  0
 16 18  2  0  0  0  0
 16 30  1  0  0  0  0
 17 20  2  0  0  0  0
 17 33  1  0  0  0  0
 18 20  1  0  0  0  0
 18 34  1  0  0  0  0
 20 35  1  0  0  0  0
 21 36  1  0  0  0  0
 21 37  1  0  0  0  0
 21 38  1  0  0  0  0
M  END
> <PUBCHEM_COMPOUND_CID>
134601

> <PUBCHEM_CONFORMER_RMSD>
0.8

> <PUBCHEM_CONFORMER_DIVERSEORDER>
1
90
305
26
308
194
11
310
67
216
188
312
134
31
158
25
167
285
94
198
211
229
113
13
263
288
152
168
205
107
40
16
237
257
210
12
297
4
69
21
80
224
95
131
270
282
268
235
149
186
294
265
10
275
187
226
219
191
269
295
182
54
57
243
47
225
184
27
178
202
221
206
239
112
299
193
255
117
118
43
214
289
209
29
161
121
2
100
63
142
23
65
309
147
201
233
41
52
125
259
264
139
166
85
36
298
179
78
287
204
35
274
173
7
49
247
316
72
251
32
123
64
208
104
192
84
38
5
150
81
272
244
109
236
141
240
59
53
14
273
160
133
145
56
96
262
256
79
223
183
197
180
20
126
143
304
171
215
97
48
9
82
58
138
45
164
70
39
163
260
315
15
108
290
278
157
130
261
128
303
241
266
155
232
135
169
8
311
136
19
228
87
120
245
230
317
105
116
42
189
91
174
218
242
3
153
122
246
55
252
101
307
238
151
212
254
286
248
203
137
71
281
86
119
284
293
154
68
165
99
267
291
220
222
280
66
296
6
106
115
114
76
22
83
110
306
129
217
196
258
46
33
292
271
279
170
250
124
144
276
51
77
207
301
195
73
200
60
176
24
28
313
300
283
61
175
277
190
177
98
199
132
302
140
156
30
127
93
18
185
89
88
102
234
75
62
148
213
159
44
37
50
181
103
17
111
314
231
172
34
253
249
92
227
74
162
146

> <PUBCHEM_MMFF94_PARTIAL_CHARGES>
30
1 -0.43
10 0.33
11 -0.14
12 0.57
13 0.66
14 0.06
15 -0.15
16 -0.15
17 -0.15
18 -0.15
19 0.66
2 -0.57
20 -0.15
21 0.28
25 0.37
29 0.15
3 -0.57
30 0.15
31 0.36
32 0.36
33 0.15
34 0.15
35 0.15
39 0.5
4 -0.65
5 -0.57
6 -0.73
7 -0.99
8 0.36
9 0.14

> <PUBCHEM_EFFECTIVE_ROTOR_COUNT>
9

> <PUBCHEM_PHARMACOPHORE_FEATURES>
9
1 2 acceptor
1 3 acceptor
1 4 acceptor
1 5 acceptor
1 6 donor
1 7 cation
1 7 donor
3 4 5 19 anion
6 11 15 16 17 18 20 rings

> <PUBCHEM_HEAVY_ATOM_COUNT>
21

> <PUBCHEM_ATOM_DEF_STEREO_COUNT>
2

> <PUBCHEM_ATOM_UDEF_STEREO_COUNT>
0

> <PUBCHEM_BOND_DEF_STEREO_COUNT>
0

> <PUBCHEM_BOND_UDEF_STEREO_COUNT>
0

> <PUBCHEM_ISOTOPIC_ATOM_COUNT>
0

> <PUBCHEM_COMPONENT_COUNT>
1

> <PUBCHEM_CACTVS_TAUTO_COUNT>
2

> <PUBCHEM_CONFORMER_ID>
00020DC900000001

> <PUBCHEM_MMFF94_ENERGY>
41.045

> <PUBCHEM_FEATURE_SELFOVERLAP>
45.73

> <PUBCHEM_SHAPE_FINGERPRINT>
10366900 7 18201142313249357218
12173636 292 18121494661680509509
12506688 2 18262521515004555523
12516196 113 18339920536757150631
12553582 1 18337964496854776303
12788726 201 18264511583642562341
12930653 34 18339920411981351694
13140716 1 18265899248979131863
14081887 123 18339067268167395226
14178342 30 18261668161032217230
14223421 5 18341894039616495838
14787075 74 18044089283914314746
15806764 133 17561089081777920192
17349148 13 17312821589492698138
20510252 161 18342174406465055987
21069387 34 14779813928835250602
2297311 6 18341061786718587630
23402539 116 13984929723843413326
23557571 272 18272938180992389732
23558518 356 18189344471836802699
23559900 14 18337663123531784326
23598288 3 18199735977842978430
238078 22 18262805184503780658
392239 28 18338792446358458658
4340502 62 17693101760852518217
5104073 3 18267009584641847922
5486654 2 18336830913367387998
633830 44 13901899042973785038
81228 2 18270418091661726717
9709674 26 18198056984880171134

> <PUBCHEM_SHAPE_MULTIPOLES>
392.86
9.2
3.49
1.11
9.74
2.54
-0.13
-2.91
1.68
-4.01
0.85
0.03
0.18
0.29

> <PUBCHEM_SHAPE_SELFOVERLAP>
802.923

> <PUBCHEM_SHAPE_VOLUME>
225.4

> <PUBCHEM_COORDINATE_TYPE>
2
5
10

$$$$
