5287879
  -OEChem-07162413332D

126129  0  0  1  0            999 V2000
    1.5608   -1.2163    3.3424 O   0  0  0  0  0  0  0  0  0  0  0  0
    0.8904    2.4530    2.6425 O   0  0  0  0  0  0  0  0  0  0  0  0
   -0.6383    3.6229    1.0636 O   0  0  0  0  0  0  0  0  0  0  0  0
    1.3878   -3.5451    3.8847 O   0  0  0  0  0  0  0  0  0  0  0  0
   -0.6205    1.1249   -0.3507 O   0  0  0  0  0  0  0  0  0  0  0  0
    4.0583   -4.6814    0.9309 O   0  0  0  0  0  0  0  0  0  0  0  0
    3.3827   -5.8015    3.2112 O   0  0  0  0  0  0  0  0  0  0  0  0
   -0.2566    5.5061   -0.7908 O   0  0  0  0  0  0  0  0  0  0  0  0
    0.7095    0.6842   -3.8232 O   0  0  0  0  0  0  0  0  0  0  0  0
   -3.5036    4.8850   -2.3260 O   0  0  0  0  0  0  0  0  0  0  0  0
    0.7911    5.2459   -4.2080 O   0  0  0  0  0  0  0  0  0  0  0  0
   -3.5226   -0.7025   -1.7730 O   0  0  0  0  0  0  0  0  0  0  0  0
   -6.6233    4.6927    1.2850 O   0  0  0  0  0  0  0  0  0  0  0  0
   -0.9103    6.3092   -4.6897 O   0  0  0  0  0  0  0  0  0  0  0  0
    5.0776   -6.7165    3.9497 O   0  0  0  0  0  0  0  0  0  0  0  0
   -3.9577    5.5543   -4.3443 O   0  0  0  0  0  0  0  0  0  0  0  0
    0.7447   -1.1447    0.2474 N   0  0  0  0  0  0  0  0  0  0  0  0
    0.4912   -0.1011    1.3128 C   0  0  1  0  0  0  0  0  0  0  0  0
    1.5286   -0.0374    2.4805 C   0  0  1  0  0  0  0  0  0  0  0  0
    0.2766    1.3121    0.7024 C   0  0  2  0  0  0  0  0  0  0  0  0
    1.2580    1.2354    3.3719 C   0  0  1  0  0  0  0  0  0  0  0  0
   -0.2197    2.3748    1.7097 C   0  0  1  0  0  0  0  0  0  0  0  0
   -1.7973    3.8117    0.1605 C   0  0  1  0  0  0  0  0  0  0  0  0
    2.7388   -4.4040    1.4161 C   0  0  2  0  0  0  0  0  0  0  0  0
    1.5671   -2.5737    2.8330 C   0  0  2  0  0  0  0  0  0  0  0  0
    2.8365   -2.9775    2.0398 C   0  0  0  0  0  0  0  0  0  0  0  0
   -3.1810    3.4188    0.8286 C   0  0  2  0  0  0  0  0  0  0  0  0
    2.2941   -5.4442    2.5039 C   0  0  2  0  0  0  0  0  0  0  0  0
    1.1811   -4.9247    3.4815 C   0  0  2  0  0  0  0  0  0  0  0  0
   -1.6595    5.1698   -0.6465 C   0  0  2  0  0  0  0  0  0  0  0  0
   -3.5946    1.8877    0.8095 C   0  0  0  0  0  0  0  0  0  0  0  0
    2.4542    1.5823    4.2905 C   0  0  0  0  0  0  0  0  0  0  0  0
   -2.2199    5.2834   -2.1321 C   0  0  1  0  0  0  0  0  0  0  0  0
   -4.3984    4.3889    0.6540 C   0  0  0  0  0  0  0  0  0  0  0  0
    1.8720   -4.5200    0.1292 C   0  0  0  0  0  0  0  0  0  0  0  0
   -4.1715    0.9880   -0.3558 C   0  0  2  0  0  0  0  0  0  0  0  0
    1.7726   -0.8558   -0.7949 C   0  0  0  0  0  0  0  0  0  0  0  0
   -0.4543   -1.8865   -0.2551 C   0  0  0  0  0  0  0  0  0  0  0  0
   -0.2855   -5.1989    3.0428 C   0  0  0  0  0  0  0  0  0  0  0  0
    0.7410    2.0190   -3.3287 C   0  0  2  0  0  0  0  0  0  0  0  0
   -0.5467    1.3785   -3.8684 C   0  0  2  0  0  0  0  0  0  0  0  0
   -1.3081    4.5963   -3.2102 C   0  0  0  0  0  0  0  0  0  0  0  0
    1.6871    2.9292   -4.1488 C   0  0  0  0  0  0  0  0  0  0  0  0
   -3.3842    0.4908   -1.5116 C   0  0  0  0  0  0  0  0  0  0  0  0
   -5.6413    1.2907   -0.7431 C   0  0  0  0  0  0  0  0  0  0  0  0
    1.7773    4.4440   -3.7685 C   0  0  1  0  0  0  0  0  0  0  0  0
   -5.5076    4.2896    1.5795 C   0  0  0  0  0  0  0  0  0  0  0  0
   -1.5195    0.6664   -3.0512 C   0  0  0  0  0  0  0  0  0  0  0  0
    3.9923   -6.8686    3.4085 C   0  0  0  0  0  0  0  0  0  0  0  0
   -0.4269    5.3981   -4.0341 C   0  0  0  0  0  0  0  0  0  0  0  0
   -2.5558    1.1841   -2.3553 C   0  0  0  0  0  0  0  0  0  0  0  0
    0.4053    6.4113    0.1006 C   0  0  0  0  0  0  0  0  0  0  0  0
    3.5628   -8.2194    3.0670 C   0  0  0  0  0  0  0  0  0  0  0  0
    3.0600    5.0786   -4.3728 C   0  0  0  0  0  0  0  0  0  0  0  0
   -4.2769    4.9619   -3.3204 C   0  0  0  0  0  0  0  0  0  0  0  0
    4.2465   -8.8763    1.8287 C   0  0  1  0  0  0  0  0  0  0  0  0
   -5.5696    4.3189   -3.3712 C   0  0  0  0  0  0  0  0  0  0  0  0
    3.6967  -10.3069    1.5677 C   0  0  0  0  0  0  0  0  0  0  0  0
    4.1559   -8.0562    0.5124 C   0  0  0  0  0  0  0  0  0  0  0  0
   -0.4425   -0.3613    1.8263 H   0  0  0  0  0  0  0  0  0  0  0  0
    2.5179    0.0753    2.0305 H   0  0  0  0  0  0  0  0  0  0  0  0
    1.2003    1.6896    0.2562 H   0  0  0  0  0  0  0  0  0  0  0  0
    0.4195    1.0027    4.0370 H   0  0  0  0  0  0  0  0  0  0  0  0
   -1.0543    2.0360    2.3205 H   0  0  0  0  0  0  0  0  0  0  0  0
   -1.6762    3.1292   -0.6566 H   0  0  0  0  0  0  0  0  0  0  0  0
    0.6780   -2.6661    2.2223 H   0  0  0  0  0  0  0  0  0  0  0  0
    3.6763   -2.9394    2.7396 H   0  0  0  0  0  0  0  0  0  0  0  0
    3.0684   -2.2514    1.2659 H   0  0  0  0  0  0  0  0  0  0  0  0
   -2.9434    3.6094    1.8817 H   0  0  0  0  0  0  0  0  0  0  0  0
    1.8902   -6.3154    1.9812 H   0  0  0  0  0  0  0  0  0  0  0  0
    1.2712   -5.4962    4.4102 H   0  0  0  0  0  0  0  0  0  0  0  0
   -2.1266    5.9677   -0.0673 H   0  0  0  0  0  0  0  0  0  0  0  0
   -4.3290    1.8018    1.6185 H   0  0  0  0  0  0  0  0  0  0  0  0
   -2.7740    1.3112    1.2192 H   0  0  0  0  0  0  0  0  0  0  0  0
    2.2173    2.4398    4.9235 H   0  0  0  0  0  0  0  0  0  0  0  0
    3.3371    1.8307    3.6985 H   0  0  0  0  0  0  0  0  0  0  0  0
    2.7026    0.7440    4.9448 H   0  0  0  0  0  0  0  0  0  0  0  0
   -2.2303    6.3600   -2.3402 H   0  0  0  0  0  0  0  0  0  0  0  0
   -4.0916    5.4283    0.7617 H   0  0  0  0  0  0  0  0  0  0  0  0
   -4.7873    4.2798   -0.3491 H   0  0  0  0  0  0  0  0  0  0  0  0
    1.9476   -5.5142   -0.3164 H   0  0  0  0  0  0  0  0  0  0  0  0
    0.8203   -4.3508    0.3371 H   0  0  0  0  0  0  0  0  0  0  0  0
    2.1954   -3.8187   -0.6364 H   0  0  0  0  0  0  0  0  0  0  0  0
   -4.3371    0.0657    0.2257 H   0  0  0  0  0  0  0  0  0  0  0  0
   -1.3959    0.6880    0.0523 H   0  0  0  0  0  0  0  0  0  0  0  0
    2.7264   -0.5745   -0.3506 H   0  0  0  0  0  0  0  0  0  0  0  0
    1.4635   -0.0443   -1.4407 H   0  0  0  0  0  0  0  0  0  0  0  0
    1.9585   -1.7012   -1.4547 H   0  0  0  0  0  0  0  0  0  0  0  0
   -0.9930   -2.3667    0.5631 H   0  0  0  0  0  0  0  0  0  0  0  0
   -1.1626   -1.2408   -0.7568 H   0  0  0  0  0  0  0  0  0  0  0  0
   -0.2009   -2.6686   -0.9702 H   0  0  0  0  0  0  0  0  0  0  0  0
   -0.9754   -4.9501    3.8513 H   0  0  0  0  0  0  0  0  0  0  0  0
   -0.4302   -6.2529    2.7965 H   0  0  0  0  0  0  0  0  0  0  0  0
   -0.5876   -4.6174    2.1741 H   0  0  0  0  0  0  0  0  0  0  0  0
    0.8422    2.0755   -2.2459 H   0  0  0  0  0  0  0  0  0  0  0  0
    4.2471   -4.0057    0.2448 H   0  0  0  0  0  0  0  0  0  0  0  0
   -0.8036    1.5462   -4.9138 H   0  0  0  0  0  0  0  0  0  0  0  0
   -1.8695    3.9923   -3.9268 H   0  0  0  0  0  0  0  0  0  0  0  0
   -0.7222    3.8851   -2.6605 H   0  0  0  0  0  0  0  0  0  0  0  0
    1.4706    2.8364   -5.2145 H   0  0  0  0  0  0  0  0  0  0  0  0
    2.6719    2.4834   -3.9813 H   0  0  0  0  0  0  0  0  0  0  0  0
   -6.3183    1.1603    0.1053 H   0  0  0  0  0  0  0  0  0  0  0  0
   -6.0065    0.6490   -1.5487 H   0  0  0  0  0  0  0  0  0  0  0  0
   -5.7355    2.3125   -1.0683 H   0  0  0  0  0  0  0  0  0  0  0  0
    1.8564    4.5466   -2.6813 H   0  0  0  0  0  0  0  0  0  0  0  0
   -5.3728    3.9410    2.4975 H   0  0  0  0  0  0  0  0  0  0  0  0
   -1.3685   -0.3161   -3.0007 H   0  0  0  0  0  0  0  0  0  0  0  0
   -2.7196    2.1557   -2.4249 H   0  0  0  0  0  0  0  0  0  0  0  0
    1.4472    6.4785   -0.2140 H   0  0  0  0  0  0  0  0  0  0  0  0
   -0.0356    7.4069    0.0385 H   0  0  0  0  0  0  0  0  0  0  0  0
    0.3790    6.0595    1.1318 H   0  0  0  0  0  0  0  0  0  0  0  0
    3.7420   -8.8438    3.9478 H   0  0  0  0  0  0  0  0  0  0  0  0
    2.4789   -8.2521    2.9393 H   0  0  0  0  0  0  0  0  0  0  0  0
    3.1445    6.1384   -4.1188 H   0  0  0  0  0  0  0  0  0  0  0  0
    3.0621    4.9937   -5.4628 H   0  0  0  0  0  0  0  0  0  0  0  0
    3.9584    4.5864   -3.9949 H   0  0  0  0  0  0  0  0  0  0  0  0
    5.3113   -8.9812    2.0612 H   0  0  0  0  0  0  0  0  0  0  0  0
   -5.5192    3.4223   -3.9947 H   0  0  0  0  0  0  0  0  0  0  0  0
   -6.3315    4.9841   -3.7806 H   0  0  0  0  0  0  0  0  0  0  0  0
   -5.9248    4.0379   -2.3886 H   0  0  0  0  0  0  0  0  0  0  0  0
    3.8380  -10.9462    2.4414 H   0  0  0  0  0  0  0  0  0  0  0  0
    2.6305  -10.2761    1.3329 H   0  0  0  0  0  0  0  0  0  0  0  0
    4.2126  -10.7799    0.7307 H   0  0  0  0  0  0  0  0  0  0  0  0
    3.1179   -7.8906    0.2185 H   0  0  0  0  0  0  0  0  0  0  0  0
    4.6513   -7.0939    0.6253 H   0  0  0  0  0  0  0  0  0  0  0  0
    4.6657   -8.5649   -0.3072 H   0  0  0  0  0  0  0  0  0  0  0  0
 19  1  1  0  0  0  0
 25  1  1  0  0  0  0
  2 21  1  0  0  0  0
  2 22  1  0  0  0  0
 22  3  1  0  0  0  0
 23  3  1  0  0  0  0
  4 25  1  0  0  0  0
  4 29  1  0  0  0  0
 20  5  1  0  0  0  0
  5 85  1  0  0  0  0
 24  6  1  0  0  0  0
  6 96  1  0  0  0  0
 28  7  1  0  0  0  0
  7 49  1  0  0  0  0
 30  8  1  0  0  0  0
  8 52  1  0  0  0  0
 40  9  1  0  0  0  0
 41  9  1  0  0  0  0
 33 10  1  0  0  0  0
 10 55  1  0  0  0  0
 11 46  1  0  0  0  0
 11 50  1  0  0  0  0
 12 44  2  0  0  0  0
 13 47  2  0  0  0  0
 14 50  2  0  0  0  0
 15 49  2  0  0  0  0
 16 55  2  0  0  0  0
 18 17  1  0  0  0  0
 17 37  1  0  0  0  0
 17 38  1  0  0  0  0
 18 19  1  0  0  0  0
 18 20  1  0  0  0  0
 18 60  1  0  0  0  0
 19 21  1  0  0  0  0
 19 61  1  0  0  0  0
 20 22  1  0  0  0  0
 20 62  1  0  0  0  0
 21 32  1  0  0  0  0
 21 63  1  0  0  0  0
 22 64  1  0  0  0  0
 23 27  1  0  0  0  0
 23 30  1  0  0  0  0
 23 65  1  0  0  0  0
 24 26  1  0  0  0  0
 24 28  1  0  0  0  0
 24 35  1  0  0  0  0
 25 26  1  0  0  0  0
 25 66  1  0  0  0  0
 26 67  1  0  0  0  0
 26 68  1  0  0  0  0
 27 31  1  0  0  0  0
 27 34  1  0  0  0  0
 27 69  1  0  0  0  0
 28 29  1  0  0  0  0
 28 70  1  0  0  0  0
 29 39  1  0  0  0  0
 29 71  1  0  0  0  0
 30 33  1  0  0  0  0
 30 72  1  0  0  0  0
 31 36  1  0  0  0  0
 31 73  1  0  0  0  0
 31 74  1  0  0  0  0
 32 75  1  0  0  0  0
 32 76  1  0  0  0  0
 32 77  1  0  0  0  0
 33 42  1  0  0  0  0
 33 78  1  0  0  0  0
 34 47  1  0  0  0  0
 34 79  1  0  0  0  0
 34 80  1  0  0  0  0
 35 81  1  0  0  0  0
 35 82  1  0  0  0  0
 35 83  1  0  0  0  0
 36 44  1  0  0  0  0
 36 45  1  0  0  0  0
 36 84  1  0  0  0  0
 37 86  1  0  0  0  0
 37 87  1  0  0  0  0
 37 88  1  0  0  0  0
 38 89  1  0  0  0  0
 38 90  1  0  0  0  0
 38 91  1  0  0  0  0
 39 92  1  0  0  0  0
 39 93  1  0  0  0  0
 39 94  1  0  0  0  0
 40 41  1  0  0  0  0
 40 43  1  0  0  0  0
 40 95  1  0  0  0  0
 41 48  1  0  0  0  0
 41 97  1  0  0  0  0
 42 50  1  0  0  0  0
 42 98  1  0  0  0  0
 42 99  1  0  0  0  0
 43 46  1  0  0  0  0
 43100  1  0  0  0  0
 43101  1  0  0  0  0
 44 51  1  0  0  0  0
 45102  1  0  0  0  0
 45103  1  0  0  0  0
 45104  1  0  0  0  0
 46 54  1  0  0  0  0
 46105  1  0  0  0  0
 47106  1  0  0  0  0
 48 51  2  0  0  0  0
 48107  1  0  0  0  0
 49 53  1  0  0  0  0
 51108  1  0  0  0  0
 52109  1  0  0  0  0
 52110  1  0  0  0  0
 52111  1  0  0  0  0
 53 56  1  0  0  0  0
 53112  1  0  0  0  0
 53113  1  0  0  0  0
 54114  1  0  0  0  0
 54115  1  0  0  0  0
 54116  1  0  0  0  0
 55 57  1  0  0  0  0
 56 58  1  0  0  0  0
 56 59  1  0  0  0  0
 56117  1  0  0  0  0
 57118  1  0  0  0  0
 57119  1  0  0  0  0
 57120  1  0  0  0  0
 58121  1  0  0  0  0
 58122  1  0  0  0  0
 58123  1  0  0  0  0
 59124  1  0  0  0  0
 59125  1  0  0  0  0
 59126  1  0  0  0  0M  END
> <PUBCHEM_COMPOUND_CID>
5287879

> <PUBCHEM_COMPOUND_CANONICALIZED>
1

> <PUBCHEM_CACTVS_COMPLEXITY>
1470

> <PUBCHEM_CACTVS_HBOND_ACCEPTOR>
17

> <PUBCHEM_CACTVS_HBOND_DONOR>
2

> <PUBCHEM_CACTVS_ROTATABLE_BOND>
14

> <PUBCHEM_CACTVS_SUBSKEYS>
AAADcfB+PgAAAAAAAAAAAAAAEgAAAAAAAAAkSAAAAAAAAAAAAAAAHgAACAAADXzxgAcCCAMABgCIAKjSiAAAAAAgAAAICAEIAEgTFBYAoQAnUAAH4AAfIYPK7PzOAAAAAAAAAAAAAAAAAAAAAAAAAAAAAA==

> <PUBCHEM_IUPAC_OPENEYE_NAME>
[(2S,3S,4R,6S)-6-[(2R,3S,4R,5R,6S)-6-[[(1S,3R,7R,8S,9S,10R,12R,14E,16S)-7-acetoxy-8-methoxy-3,12-dimethyl-5,13-dioxo-10-(2-oxoethyl)-4,17-dioxabicyclo[14.1.0]heptadec-14-en-9-yl]oxy]-4-(dimethylamino)-5-hydroxy-2-methyl-tetrahydropyran-3-yl]oxy-4-hydroxy-2,4-dimethyl-tetrahydropyran-3-yl] 3-methylbutanoate

> <PUBCHEM_IUPAC_CAS_NAME>
3-methylbutanoic acid [(2S,3S,4R,6S)-6-[[(2R,3S,4R,5R,6S)-6-[[(1S,3R,7R,8S,9S,10R,12R,14E,16S)-7-acetyloxy-8-methoxy-3,12-dimethyl-5,13-dioxo-10-(2-oxoethyl)-4,17-dioxabicyclo[14.1.0]heptadec-14-en-9-yl]oxy]-4-(dimethylamino)-5-hydroxy-2-methyl-3-oxanyl]oxy]-4-hydroxy-2,4-dimethyl-3-oxanyl] ester

> <PUBCHEM_IUPAC_NAME_MARKUP>
[(2<I>S</I>,3<I>S</I>,4<I>R</I>,6<I>S</I>)-6-[(2<I>R</I>,3<I>S</I>,4<I>R</I>,5<I>R</I>,6<I>S</I>)-6-[[(1<I>S</I>,3<I>R</I>,7<I>R</I>,8<I>S</I>,9<I>S</I>,10<I>R</I>,12<I>R</I>,14<I>E</I>,16<I>S</I>)-7-acetyloxy-8-methoxy-3,12-dimethyl-5,13-dioxo-10-(2-oxoethyl)-4,17-dioxabicyclo[14.1.0]heptadec-14-en-9-yl]oxy]-4-(dimethylamino)-5-hydroxy-2-methyloxan-3-yl]oxy-4-hydroxy-2,4-dimethyloxan-3-yl] 3-methylbutanoate

> <PUBCHEM_IUPAC_NAME>
[(2S,3S,4R,6S)-6-[(2R,3S,4R,5R,6S)-6-[[(1S,3R,7R,8S,9S,10R,12R,14E,16S)-7-acetyloxy-8-methoxy-3,12-dimethyl-5,13-dioxo-10-(2-oxoethyl)-4,17-dioxabicyclo[14.1.0]heptadec-14-en-9-yl]oxy]-4-(dimethylamino)-5-hydroxy-2-methyloxan-3-yl]oxy-4-hydroxy-2,4-dimethyloxan-3-yl] 3-methylbutanoate

> <PUBCHEM_IUPAC_SYSTEMATIC_NAME>
[(2S,3S,4R,6S)-6-[(2R,3S,4R,5R,6S)-6-[[(1S,3R,7R,8S,9S,10R,12R,14E,16S)-7-acetyloxy-8-methoxy-3,12-dimethyl-5,13-bis(oxidanylidene)-10-(2-oxidanylideneethyl)-4,17-dioxabicyclo[14.1.0]heptadec-14-en-9-yl]oxy]-4-(dimethylamino)-2-methyl-5-oxidanyl-oxan-3-yl]oxy-2,4-dimethyl-4-oxidanyl-oxan-3-yl] 3-methylbutanoate

> <PUBCHEM_IUPAC_TRADITIONAL_NAME>
3-methylbutyric acid [(2S,3S,4R,6S)-6-[(2R,3S,4R,5R,6S)-6-[[(1S,3R,7R,8S,9S,10R,12R,14E,16S)-7-acetoxy-5,13-diketo-10-(2-ketoethyl)-8-methoxy-3,12-dimethyl-4,17-dioxabicyclo[14.1.0]heptadec-14-en-9-yl]oxy]-4-(dimethylamino)-5-hydroxy-2-methyl-tetrahydropyran-3-yl]oxy-4-hydroxy-2,4-dimethyl-tetrahydropyran-3-yl] ester

> <PUBCHEM_IUPAC_INCHI>
InChI=1S/C42H67NO16/c1-21(2)16-32(47)57-40-25(6)53-34(20-42(40,8)50)58-37-24(5)54-41(36(49)35(37)43(9)10)59-38-27(14-15-44)17-22(3)28(46)12-13-29-30(56-29)18-23(4)52-33(48)19-31(39(38)51-11)55-26(7)45/h12-13,15,21-25,27,29-31,34-41,49-50H,14,16-20H2,1-11H3/b13-12+/t22-,23-,24-,25+,27+,29+,30+,31-,34+,35-,36-,37-,38+,39+,40+,41+,42-/m1/s1

> <PUBCHEM_IUPAC_INCHIKEY>
FQVHOULQCKDUCY-OGHXVOSASA-N

> <PUBCHEM_XLOGP3_AA>
1.8

> <PUBCHEM_EXACT_MASS>
841.44598505

> <PUBCHEM_MOLECULAR_FORMULA>
C42H67NO16

> <PUBCHEM_MOLECULAR_WEIGHT>
842.0

> <PUBCHEM_OPENEYE_CAN_SMILES>
CC1CC(C(C(C(CC(=O)OC(CC2C(O2)C=CC1=O)C)OC(=O)C)OC)OC3C(C(C(C(O3)C)OC4CC(C(C(O4)C)OC(=O)CC(C)C)(C)O)N(C)C)O)CC=O

> <PUBCHEM_OPENEYE_ISO_SMILES>
C[C@@H]1C[C@@H]([C@@H]([C@H]([C@@H](CC(=O)O[C@@H](C[C@H]2[C@@H](O2)/C=C/C1=O)C)OC(=O)C)OC)O[C@H]3[C@@H]([C@H]([C@@H]([C@H](O3)C)O[C@H]4C[C@@]([C@H]([C@@H](O4)C)OC(=O)CC(C)C)(C)O)N(C)C)O)CC=O

> <PUBCHEM_CACTVS_TPSA>
215

> <PUBCHEM_MONOISOTOPIC_WEIGHT>
841.44598505

> <PUBCHEM_TOTAL_CHARGE>
0

> <PUBCHEM_HEAVY_ATOM_COUNT>
59

> <PUBCHEM_ATOM_DEF_STEREO_COUNT>
17

> <PUBCHEM_ATOM_UDEF_STEREO_COUNT>
0

> <PUBCHEM_BOND_DEF_STEREO_COUNT>
1

> <PUBCHEM_BOND_UDEF_STEREO_COUNT>
0

> <PUBCHEM_ISOTOPIC_ATOM_COUNT>
0

> <PUBCHEM_COMPONENT_COUNT>
1

> <PUBCHEM_CACTVS_TAUTO_COUNT>
-1

> <PUBCHEM_COORDINATE_TYPE>
1
5
255

> <PUBCHEM_BONDANNOTATIONS>
19  1  6
25  1  5
33  10  5
18  17  5
21  32  5
27  34  5
29  39  6
22  3  5
23  3  5
36  45  6
46  54  5
20  5  6
24  6  5
28  7  5
30  8  5
40  9  5
41  9  6

$$$$
