5742673
  -OEChem-08122415553D

 47 49  0     1  0  0  0  0  0999 V2000
   -0.9192    0.7594   -1.9256 S   0  0  0  0  0  0  0  0  0  0  0  0
    3.6489   -3.3993    0.5783 S   0  0  0  0  0  0  0  0  0  0  0  0
   -0.0414    0.9728    2.6348 O   0  0  0  0  0  0  0  0  0  0  0  0
   -5.4499   -0.1403   -1.0739 O   0  0  0  0  0  0  0  0  0  0  0  0
   -3.1799    0.5502    2.8462 O   0  0  0  0  0  0  0  0  0  0  0  0
   -2.9000   -1.6306    2.2171 O   0  0  0  0  0  0  0  0  0  0  0  0
    2.9402    1.6413    1.6721 O   0  0  0  0  0  0  0  0  0  0  0  0
    4.3627    2.5141   -0.9484 O   0  0  0  0  0  0  0  0  0  0  0  0
   -6.9616   -1.8739   -0.8589 O   0  0  0  0  0  0  0  0  0  0  0  0
   -1.3678    0.9313    0.6856 N   0  0  0  0  0  0  0  0  0  0  0  0
    1.5479    1.3204   -0.1903 N   0  0  0  0  0  0  0  0  0  0  0  0
    4.6423    1.1405   -0.9332 N   0  0  0  0  0  0  0  0  0  0  0  0
    4.9796   -1.6156   -0.7373 N   0  0  0  0  0  0  0  0  0  0  0  0
    5.7600   -3.8344   -0.9792 N   0  0  0  0  0  0  0  0  0  0  0  0
   -0.9867    1.7752   -0.4323 C   0  0  1  0  0  0  0  0  0  0  0  0
    0.3494    1.9920    0.3114 C   0  0  1  0  0  0  0  0  0  0  0  0
   -0.3323    1.2460    1.4937 C   0  0  0  0  0  0  0  0  0  0  0  0
   -2.4744    0.1444    0.6943 C   0  0  0  0  0  0  0  0  0  0  0  0
   -3.1498   -0.1389   -0.4449 C   0  0  0  0  0  0  0  0  0  0  0  0
   -2.6839    0.3043   -1.8300 C   0  0  0  0  0  0  0  0  0  0  0  0
   -4.4307   -0.9359   -0.5064 C   0  0  0  0  0  0  0  0  0  0  0  0
   -2.8681   -0.4387    1.9856 C   0  0  0  0  0  0  0  0  0  0  0  0
    2.7135    1.2201    0.5494 C   0  0  0  0  0  0  0  0  0  0  0  0
    3.8112    0.4876   -0.1780 C   0  0  0  0  0  0  0  0  0  0  0  0
    3.9655   -0.9660   -0.0609 C   0  0  0  0  0  0  0  0  0  0  0  0
   -6.6815   -0.7317   -1.1965 C   0  0  0  0  0  0  0  0  0  0  0  0
    3.1423   -1.7656    0.7038 C   0  0  0  0  0  0  0  0  0  0  0  0
   -7.6579    0.2254   -1.8102 C   0  0  0  0  0  0  0  0  0  0  0  0
    4.9095   -2.9018   -0.4744 C   0  0  0  0  0  0  0  0  0  0  0  0
    5.3119    3.1478   -1.7919 C   0  0  0  0  0  0  0  0  0  0  0  0
   -1.6017    2.6793   -0.5135 H   0  0  0  0  0  0  0  0  0  0  0  0
    0.5500    3.0469    0.5335 H   0  0  0  0  0  0  0  0  0  0  0  0
   -3.2845    1.1572   -2.1644 H   0  0  0  0  0  0  0  0  0  0  0  0
   -2.8280   -0.5094   -2.5488 H   0  0  0  0  0  0  0  0  0  0  0  0
    1.5406    0.9084   -1.1204 H   0  0  0  0  0  0  0  0  0  0  0  0
   -4.2695   -1.8301   -1.1213 H   0  0  0  0  0  0  0  0  0  0  0  0
   -4.7589   -1.2669    0.4835 H   0  0  0  0  0  0  0  0  0  0  0  0
   -3.4493    0.2047    3.7239 H   0  0  0  0  0  0  0  0  0  0  0  0
    2.2928   -1.4918    1.3138 H   0  0  0  0  0  0  0  0  0  0  0  0
   -7.7672    1.1038   -1.1693 H   0  0  0  0  0  0  0  0  0  0  0  0
   -8.6329   -0.2613   -1.9051 H   0  0  0  0  0  0  0  0  0  0  0  0
   -7.3147    0.5157   -2.8064 H   0  0  0  0  0  0  0  0  0  0  0  0
    5.0995    4.2200   -1.8082 H   0  0  0  0  0  0  0  0  0  0  0  0
    5.2343    2.7586   -2.8119 H   0  0  0  0  0  0  0  0  0  0  0  0
    6.3249    2.9961   -1.4065 H   0  0  0  0  0  0  0  0  0  0  0  0
    5.6707   -4.8189   -0.7502 H   0  0  0  0  0  0  0  0  0  0  0  0
    6.5185   -3.5831   -1.6045 H   0  0  0  0  0  0  0  0  0  0  0  0
  1 15  1  0  0  0  0
  1 20  1  0  0  0  0
  2 27  1  0  0  0  0
  2 29  1  0  0  0  0
  3 17  2  0  0  0  0
  4 21  1  0  0  0  0
  4 26  1  0  0  0  0
  5 22  1  0  0  0  0
  5 38  1  0  0  0  0
  6 22  2  0  0  0  0
  7 23  2  0  0  0  0
  8 12  1  0  0  0  0
  8 30  1  0  0  0  0
  9 26  2  0  0  0  0
 10 15  1  0  0  0  0
 10 17  1  0  0  0  0
 10 18  1  0  0  0  0
 11 16  1  0  0  0  0
 11 23  1  0  0  0  0
 11 35  1  0  0  0  0
 12 24  2  0  0  0  0
 13 25  1  0  0  0  0
 13 29  2  0  0  0  0
 14 29  1  0  0  0  0
 14 46  1  0  0  0  0
 14 47  1  0  0  0  0
 15 16  1  0  0  0  0
 15 31  1  0  0  0  0
 16 17  1  0  0  0  0
 16 32  1  0  0  0  0
 18 19  2  0  0  0  0
 18 22  1  0  0  0  0
 19 20  1  0  0  0  0
 19 21  1  0  0  0  0
 20 33  1  0  0  0  0
 20 34  1  0  0  0  0
 21 36  1  0  0  0  0
 21 37  1  0  0  0  0
 23 24  1  0  0  0  0
 24 25  1  0  0  0  0
 25 27  2  0  0  0  0
 26 28  1  0  0  0  0
 27 39  1  0  0  0  0
 28 40  1  0  0  0  0
 28 41  1  0  0  0  0
 28 42  1  0  0  0  0
 30 43  1  0  0  0  0
 30 44  1  0  0  0  0
 30 45  1  0  0  0  0
M  END
> <PUBCHEM_COMPOUND_CID>
5742673

> <PUBCHEM_CONFORMER_RMSD>
1

> <PUBCHEM_CONFORMER_DIVERSEORDER>
1
42
22
37
24
26
18
23
12
14
21
28
6
35
40
4
20
43
38
19
29
25
30
11
33
3
41
34
31
9
39
15
32
17
27
7
5
36
2
13
8
10
16

> <PUBCHEM_MMFF94_PARTIAL_CHARGES>
35
1 -0.45
10 -0.39
11 -0.65
12 -0.51
13 -0.57
14 -0.88
15 0.44
16 0.28
17 0.58
18 0.12
19 -0.28
2 -0.08
20 0.37
21 0.42
22 0.71
23 0.63
24 0.54
25 0.14
26 0.66
27 -0.11
28 0.06
29 0.46
3 -0.57
30 0.28
35 0.37
38 0.5
39 0.15
4 -0.43
46 0.4
47 0.4
5 -0.65
6 -0.57
7 -0.57
8 -0.22
9 -0.57

> <PUBCHEM_EFFECTIVE_ROTOR_COUNT>
9.6

> <PUBCHEM_PHARMACOPHORE_FEATURES>
13
1 11 donor
1 12 acceptor
1 14 donor
1 3 acceptor
1 5 acceptor
1 6 acceptor
1 7 acceptor
1 9 acceptor
3 13 14 29 cation
3 5 6 22 anion
4 10 15 16 17 rings
5 2 13 25 27 29 rings
6 1 10 15 18 19 20 rings

> <PUBCHEM_HEAVY_ATOM_COUNT>
30

> <PUBCHEM_ATOM_DEF_STEREO_COUNT>
2

> <PUBCHEM_ATOM_UDEF_STEREO_COUNT>
0

> <PUBCHEM_BOND_DEF_STEREO_COUNT>
1

> <PUBCHEM_BOND_UDEF_STEREO_COUNT>
0

> <PUBCHEM_ISOTOPIC_ATOM_COUNT>
0

> <PUBCHEM_COMPONENT_COUNT>
1

> <PUBCHEM_CACTVS_TAUTO_COUNT>
4

> <PUBCHEM_CONFORMER_ID>
0057A05100000001

> <PUBCHEM_MMFF94_ENERGY>
64.1971

> <PUBCHEM_FEATURE_SELFOVERLAP>
66.288

> <PUBCHEM_SHAPE_FINGERPRINT>
10319926 262 14548471192966114331
11135926 11 18265351645555834320
117089 54 17843411670142804254
11796584 16 17488455450962743631
13533116 47 18343578560012406439
13782708 43 17774141518948617711
13911987 19 17973463258649043716
14790565 3 16444445929143890877
15183329 4 18412538813369465733
15475509 8 17749384816142745653
19841028 212 18271801289974644950
21344244 181 18187080655317008115
21641784 216 15430584053610228453
22849339 104 16732994145464964251
235170 7 17603875524315464044
23559900 14 17313398815695781262
3004659 81 18410285878946026894
345986 75 17346594162317056099
3472631 163 12829500224402232226
34797466 226 17749102322794523085
3886686 26 15765583135828187159
397830 11 9294997034120240021
404807 14 17832424198753336311
4093350 32 18114459067157885045
46194498 28 18040989653150617252
474113 269 17203035289261453295
58260988 647 18410855447971604579
59682541 52 18337942463851577661
70251023 43 18338793404051866602
7970288 3 18057883554896675854

> <PUBCHEM_SHAPE_MULTIPOLES>
559.09
16.22
3.42
2.23
15.92
1.6
1.21
7.71
-10.13
-8.37
-0.97
2
-0.41
-0.14

> <PUBCHEM_SHAPE_SELFOVERLAP>
1159.467

> <PUBCHEM_SHAPE_VOLUME>
321

> <PUBCHEM_COORDINATE_TYPE>
2
5
10

$$$$
