5481173
  -OEChem-08122415343D

 59 62  0     1  0  0  0  0  0999 V2000
    1.0795    1.7596    0.9147 S   0  0  0  0  0  0  0  0  0  0  0  0
   -5.8244    3.7875   -0.3641 S   0  0  0  0  0  0  0  0  0  0  0  0
    0.2019   -1.0824   -2.6603 O   0  0  0  0  0  0  0  0  0  0  0  0
    2.4749   -2.8099   -0.7152 O   0  5  0  0  0  0  0  0  0  0  0  0
    3.8752   -1.7186   -2.1580 O   0  0  0  0  0  0  0  0  0  0  0  0
   -2.7745    0.1004   -2.4087 O   0  0  0  0  0  0  0  0  0  0  0  0
   -2.8350   -1.5546    0.2130 O   0  0  0  0  0  0  0  0  0  0  0  0
   -2.0964   -4.8365    1.4282 O   0  0  0  0  0  0  0  0  0  0  0  0
   -1.0957   -3.4930   -0.0923 O   0  0  0  0  0  0  0  0  0  0  0  0
    1.5205    0.1589   -1.1535 N   0  0  0  0  0  0  0  0  0  0  0  0
   -1.3838    1.0695   -0.7848 N   0  0  0  0  0  0  0  0  0  0  0  0
    5.6377    0.3798    0.9514 N   0  3  0  0  0  0  0  0  0  0  0  0
   -3.8033   -0.5793    0.4889 N   0  0  0  0  0  0  0  0  0  0  0  0
   -5.6123    1.5079    0.8362 N   0  0  0  0  0  0  0  0  0  0  0  0
   -7.3899    2.8764    1.5830 N   0  0  0  0  0  0  0  0  0  0  0  0
    1.1586    1.5354   -0.8767 C   0  0  1  0  0  0  0  0  0  0  0  0
   -0.1754    1.2254   -1.5931 C   0  0  1  0  0  0  0  0  0  0  0  0
    0.4929   -0.1266   -1.9802 C   0  0  0  0  0  0  0  0  0  0  0  0
    2.6051   -0.4678   -0.6310 C   0  0  0  0  0  0  0  0  0  0  0  0
    3.2771    0.0579    0.4190 C   0  0  0  0  0  0  0  0  0  0  0  0
    2.8343    1.3179    1.1587 C   0  0  0  0  0  0  0  0  0  0  0  0
    4.5059   -0.5546    1.0497 C   0  0  0  0  0  0  0  0  0  0  0  0
    3.0291   -1.8041   -1.2302 C   0  0  0  0  0  0  0  0  0  0  0  0
   -2.5528    0.5223   -1.2851 C   0  0  0  0  0  0  0  0  0  0  0  0
   -3.6613    0.4682   -0.2660 C   0  0  0  0  0  0  0  0  0  0  0  0
    6.4320    0.3209   -0.1263 C   0  0  0  0  0  0  0  0  0  0  0  0
    5.8376    1.2590    1.9426 C   0  0  0  0  0  0  0  0  0  0  0  0
   -4.6038    1.5802   -0.1050 C   0  0  0  0  0  0  0  0  0  0  0  0
    7.5070    1.1901   -0.2459 C   0  0  0  0  0  0  0  0  0  0  0  0
    6.8976    2.1520    1.8769 C   0  0  0  0  0  0  0  0  0  0  0  0
    7.7386    2.1135    0.7690 C   0  0  0  0  0  0  0  0  0  0  0  0
   -3.0619   -2.6576    1.0766 C   0  0  0  0  0  0  0  0  0  0  0  0
   -4.5581    2.7388   -0.8515 C   0  0  0  0  0  0  0  0  0  0  0  0
   -2.9187   -2.1690    2.5150 C   0  0  0  0  0  0  0  0  0  0  0  0
   -4.4557   -3.2063    0.7862 C   0  0  0  0  0  0  0  0  0  0  0  0
   -1.9848   -3.6773    0.7304 C   0  0  0  0  0  0  0  0  0  0  0  0
   -6.3179    2.6160    0.7887 C   0  0  0  0  0  0  0  0  0  0  0  0
    1.7903    2.2578   -1.4071 H   0  0  0  0  0  0  0  0  0  0  0  0
   -0.3578    1.8732   -2.4587 H   0  0  0  0  0  0  0  0  0  0  0  0
    3.4434    2.1719    0.8464 H   0  0  0  0  0  0  0  0  0  0  0  0
    2.9425    1.1822    2.2388 H   0  0  0  0  0  0  0  0  0  0  0  0
   -1.3814    1.3732    0.1863 H   0  0  0  0  0  0  0  0  0  0  0  0
    4.8158   -1.4974    0.5869 H   0  0  0  0  0  0  0  0  0  0  0  0
    4.3306   -0.7803    2.1088 H   0  0  0  0  0  0  0  0  0  0  0  0
    6.2002   -0.4184   -0.8831 H   0  0  0  0  0  0  0  0  0  0  0  0
    5.1693    1.2299    2.7941 H   0  0  0  0  0  0  0  0  0  0  0  0
    8.1552    1.1501   -1.1147 H   0  0  0  0  0  0  0  0  0  0  0  0
    7.0711    2.8631    2.6774 H   0  0  0  0  0  0  0  0  0  0  0  0
    8.5752    2.8023    0.6971 H   0  0  0  0  0  0  0  0  0  0  0  0
   -3.8713    3.0235   -1.6361 H   0  0  0  0  0  0  0  0  0  0  0  0
   -3.7049   -1.4623    2.8024 H   0  0  0  0  0  0  0  0  0  0  0  0
   -1.9599   -1.6562    2.6576 H   0  0  0  0  0  0  0  0  0  0  0  0
   -2.9573   -3.0041    3.2231 H   0  0  0  0  0  0  0  0  0  0  0  0
   -5.2518   -2.5010    1.0485 H   0  0  0  0  0  0  0  0  0  0  0  0
   -4.5694   -3.4338   -0.2804 H   0  0  0  0  0  0  0  0  0  0  0  0
   -4.6452   -4.1295    1.3449 H   0  0  0  0  0  0  0  0  0  0  0  0
   -7.9074    3.7465    1.5141 H   0  0  0  0  0  0  0  0  0  0  0  0
   -7.7144    2.2116    2.2775 H   0  0  0  0  0  0  0  0  0  0  0  0
   -1.3930   -5.4768    1.1886 H   0  0  0  0  0  0  0  0  0  0  0  0
  1 16  1  0  0  0  0
  1 21  1  0  0  0  0
  2 33  1  0  0  0  0
  2 37  1  0  0  0  0
  3 18  2  0  0  0  0
  4 23  1  0  0  0  0
  5 23  2  0  0  0  0
  6 24  2  0  0  0  0
  7 13  1  0  0  0  0
  7 32  1  0  0  0  0
  8 36  1  0  0  0  0
  8 59  1  0  0  0  0
  9 36  2  0  0  0  0
 10 16  1  0  0  0  0
 10 18  1  0  0  0  0
 10 19  1  0  0  0  0
 11 17  1  0  0  0  0
 11 24  1  0  0  0  0
 11 42  1  0  0  0  0
 12 22  1  0  0  0  0
 12 26  2  0  0  0  0
 12 27  1  0  0  0  0
 13 25  2  0  0  0  0
 14 28  1  0  0  0  0
 14 37  2  0  0  0  0
 15 37  1  0  0  0  0
 15 57  1  0  0  0  0
 15 58  1  0  0  0  0
 16 17  1  0  0  0  0
 16 38  1  0  0  0  0
 17 18  1  0  0  0  0
 17 39  1  0  0  0  0
 19 20  2  0  0  0  0
 19 23  1  0  0  0  0
 20 21  1  0  0  0  0
 20 22  1  0  0  0  0
 21 40  1  0  0  0  0
 21 41  1  0  0  0  0
 22 43  1  0  0  0  0
 22 44  1  0  0  0  0
 24 25  1  0  0  0  0
 25 28  1  0  0  0  0
 26 29  1  0  0  0  0
 26 45  1  0  0  0  0
 27 30  2  0  0  0  0
 27 46  1  0  0  0  0
 28 33  2  0  0  0  0
 29 31  2  0  0  0  0
 29 47  1  0  0  0  0
 30 31  1  0  0  0  0
 30 48  1  0  0  0  0
 31 49  1  0  0  0  0
 32 34  1  0  0  0  0
 32 35  1  0  0  0  0
 32 36  1  0  0  0  0
 33 50  1  0  0  0  0
 34 51  1  0  0  0  0
 34 52  1  0  0  0  0
 34 53  1  0  0  0  0
 35 54  1  0  0  0  0
 35 55  1  0  0  0  0
 35 56  1  0  0  0  0
M  CHG  2   4  -1  12   1
M  END
> <PUBCHEM_COMPOUND_CID>
5481173

> <PUBCHEM_CONFORMER_RMSD>
1.2

> <PUBCHEM_CONFORMER_DIVERSEORDER>
1
32
25
45
39
20
13
47
8
38
31
22
21
23
24
17
15
44
27
48
28
41
5
30
16
34
40
12
36
6
46
42
26
43
4
29
9
10
37
33
19
35
3
11
7
18
2
14

> <PUBCHEM_MMFF94_PARTIAL_CHARGES>
45
1 -0.45
10 -0.39
11 -0.65
12 -0.21
13 -0.51
14 -0.57
15 -0.88
16 0.44
17 0.28
18 0.58
19 -0.14
2 -0.08
20 -0.28
21 0.37
22 0.63
23 1.05
24 0.63
25 0.54
26 0.21
27 0.21
28 0.14
29 -0.15
3 -0.57
30 -0.15
31 -0.15
32 0.34
33 -0.11
36 0.66
37 0.46
4 -0.9
42 0.37
45 0.15
46 0.15
47 0.15
48 0.15
49 0.15
5 -0.9
50 0.15
57 0.4
58 0.4
59 0.5
6 -0.57
7 -0.22
8 -0.65
9 -0.57

> <PUBCHEM_EFFECTIVE_ROTOR_COUNT>
10.6

> <PUBCHEM_PHARMACOPHORE_FEATURES>
17
1 11 donor
1 13 acceptor
1 15 donor
1 3 acceptor
1 4 acceptor
1 5 acceptor
1 6 acceptor
1 8 acceptor
1 9 acceptor
3 14 15 37 cation
3 32 34 35 hydrophobe
3 4 5 23 anion
3 8 9 36 anion
4 10 16 17 18 rings
5 2 14 28 33 37 rings
6 1 10 16 19 20 21 rings
6 12 26 27 29 30 31 rings

> <PUBCHEM_HEAVY_ATOM_COUNT>
37

> <PUBCHEM_ATOM_DEF_STEREO_COUNT>
2

> <PUBCHEM_ATOM_UDEF_STEREO_COUNT>
0

> <PUBCHEM_BOND_DEF_STEREO_COUNT>
1

> <PUBCHEM_BOND_UDEF_STEREO_COUNT>
0

> <PUBCHEM_ISOTOPIC_ATOM_COUNT>
0

> <PUBCHEM_COMPONENT_COUNT>
1

> <PUBCHEM_CACTVS_TAUTO_COUNT>
4

> <PUBCHEM_CONFORMER_ID>
0053A2D500000001

> <PUBCHEM_MMFF94_ENERGY>
88.7867

> <PUBCHEM_FEATURE_SELFOVERLAP>
86.652

> <PUBCHEM_SHAPE_FINGERPRINT>
10906281 52 18343297068230652548
11093857 5 18262536882429760826
11112241 14 18271241621755279391
11578080 2 18341612603152397666
13726171 33 18043837435680236252
14020679 6 18411978044769132385
14395042 24 17749965478979516243
14856354 85 18187361069067063756
15361156 5 18272929427569790628
15444296 121 18335421313406133580
16110190 28 17967253104587958348
21033648 29 18337401465185978891
22122407 14 17203608189821201752
3383291 50 18260834843262858787
3882209 13 17762328519922417543
4073 2 18412825784986235402
4403749 210 18199740518145389888
4938544 92 18410008879193168632
5080951 261 17749937972985032623
508706 21 18336836372123582799
5265222 85 17972068939964306599
5364581 5 18264768946842295272
6009941 240 18342175570491312624
6086070 43 16343691158645141912
6691757 9 18187361043745431513

> <PUBCHEM_SHAPE_MULTIPOLES>
698.17
18.71
4.71
2.11
15.77
3.96
0.4
-17.55
-8.65
-8.5
-1.78
0.38
0.42
2.89

> <PUBCHEM_SHAPE_SELFOVERLAP>
1475.5

> <PUBCHEM_SHAPE_VOLUME>
395.4

> <PUBCHEM_COORDINATE_TYPE>
2
5
10

$$$$
