C:/Users/charl/WebstormProjects/aims/src/molecules/sdf/clarithromycin.sdf
__Jmol-16.12022419203D 1   1.00000     0.00000     0
Jmol version 16.2.5  2024-04-16 21:43 EXTRACT: ({0:120})
121123  0  0  0  0            999 V2000
   -3.9235    0.8136   -2.0692 O   0  0  0  0  0  0
   -2.5854    0.9638   -1.5745 C   0  0  2  0  0  0
   -1.8953    2.0678   -2.3940 C   0  0  2  0  0  0
   -2.6105    3.4389   -2.2946 C   0  0  2  0  0  0
   -4.1471    3.2824   -2.5242 C   0  0  2  0  0  0
   -4.7810    1.9675   -1.9963 C   0  0  2  0  0  0
   -1.9867   -0.3414   -1.7446 O   0  0  0  0  0  0
   -0.6476   -0.6368   -1.2598 C   0  0  1  0  0  0
   -0.6035   -1.0620    0.2598 C   0  0  1  0  0  0
   -0.1551   -0.0467    1.3913 C   0  0  1  0  0  0
    1.4496    0.1948    1.6124 C   0  0  1  0  0  0
    2.4474   -0.8654    0.9970 C   0  0  2  0  0  0
    2.7973   -2.1960    1.7484 C   0  0  2  0  0  0
    3.8905   -2.9745    0.9606 C   0  0  0  0  0  0
    3.9094   -4.4973    0.8953 C   0  0  1  0  0  0
    3.2884   -5.0881   -0.4050 C   0  0  2  0  0  0
    3.7835   -4.6337   -1.8519 C   0  0  1  0  0  0
    3.3560   -3.1737   -2.3186 C   0  0  2  0  0  0
    1.9174   -3.0593   -2.3215 O   0  0  0  0  0  0
    1.3831   -1.7949   -2.2924 C   0  0  0  0  0  0
   -0.1256   -1.8499   -2.1295 C   0  0  2  0  0  0
   -2.1733    4.3750   -3.3427 O   0  0  0  0  0  0
   -0.7686    4.6597   -3.4327 C   0  0  0  0  0  0
   -2.3544    4.1044   -0.9339 C   0  0  0  0  0  0
   -4.4011    3.3455   -3.9328 O   0  0  0  0  0  0
   -5.3792    2.0744   -0.6043 C   0  0  0  0  0  0
   -1.9100   -1.7673    0.6570 C   0  0  0  0  0  0
   -0.9128    1.2106    1.3448 O   0  0  0  0  0  0
   -1.9792    1.3967    2.3331 C   0  0  2  0  0  0
   -2.7876    2.5151    1.9510 O   0  0  0  0  0  0
   -3.9160    2.7595    2.8308 C   0  0  1  0  0  0
   -3.5255    2.8010    4.3154 C   0  0  2  0  0  0
   -2.0083    2.8297    4.5346 C   0  0  1  0  0  0
   -1.4437    1.5853    3.7867 C   0  0  1  0  0  0
    1.8609    1.5367    1.2343 O   0  0  0  0  0  0
    1.8823    1.8813   -0.1568 C   0  0  0  0  0  0
    1.7571    0.2387    3.1216 C   0  0  0  0  0  0
    1.5730   -3.0332    2.1516 C   0  0  0  0  0  0
    4.8142   -2.3661    0.4300 O   0  0  0  0  0  0
    5.3156   -5.0274    1.2032 C   0  0  0  0  0  0
    1.8645   -5.0100   -0.2955 O   0  0  0  0  0  0
    5.2035   -4.7853   -1.9130 O   0  0  0  0  0  0
    3.2168   -5.6784   -2.8431 C   0  0  0  0  0  0
    3.9203   -2.7570   -3.7084 C   0  0  2  0  0  0
    5.2718   -2.0642   -3.6185 C   0  0  0  0  0  0
    2.0337   -0.7568   -2.3777 O   0  0  0  0  0  0
   -0.7154   -1.9741   -3.5366 C   0  0  0  0  0  0
   -4.5786    4.0719    2.4167 C   0  0  0  0  0  0
   -1.4057    4.1739    4.1915 N   0  0  0  0  0  0
   -1.7897    5.2175    5.1669 C   0  0  0  0  0  0
   -1.7230    0.4045    4.5724 O   0  0  0  0  0  0
    0.0702    4.1530    4.1005 C   0  0  0  0  0  0
   -2.6223    1.1973   -0.5074 H   0  0  0  0  0  0
   -1.8504    1.7581   -3.4459 H   0  0  0  0  0  0
   -0.8469    2.1635   -2.0921 H   0  0  0  0  0  0
   -4.6827    4.1435   -2.1121 H   0  0  0  0  0  0
   -5.6239    1.7229   -2.6549 H   0  0  0  0  0  0
   -0.0113    0.2306   -1.4321 H   0  0  0  0  0  0
    0.1379   -1.8547    0.3147 H   0  0  0  0  0  0
   -0.4630   -0.5519    2.3040 H   0  0  0  0  0  0
    3.3994   -0.3438    0.8343 H   0  0  0  0  0  0
    2.1339   -1.1096   -0.0116 H   0  0  0  0  0  0
    3.2975   -1.9339    2.6879 H   0  0  0  0  0  0
    3.3114   -4.8545    1.7373 H   0  0  0  0  0  0
    3.5113   -6.1585   -0.3416 H   0  0  0  0  0  0
    3.7374   -2.4514   -1.5976 H   0  0  0  0  0  0
   -0.3674   -2.7888   -1.6105 H   0  0  0  0  0  0
   -0.1992    3.7593   -3.6645 H   0  0  0  0  0  0
   -0.3937    5.1260   -2.5166 H   0  0  0  0  0  0
   -0.6238    5.3707   -4.2536 H   0  0  0  0  0  0
   -2.7754    5.1120   -0.8986 H   0  0  0  0  0  0
   -1.2888    4.2016   -0.7158 H   0  0  0  0  0  0
   -2.7980    3.5332   -0.1229 H   0  0  0  0  0  0
   -3.8014    4.0509   -4.2592 H   0  0  0  0  0  0
   -6.0942    2.9026   -0.5341 H   0  0  0  0  0  0
   -4.6038    2.2105    0.1454 H   0  0  0  0  0  0
   -5.8958    1.1513   -0.3384 H   0  0  0  0  0  0
   -2.7538   -1.0741    0.7144 H   0  0  0  0  0  0
   -1.8112   -2.2524    1.6361 H   0  0  0  0  0  0
   -2.1751   -2.5512   -0.0533 H   0  0  0  0  0  0
   -2.6269    0.5105    2.2857 H   0  0  0  0  0  0
   -4.6413    1.9554    2.6722 H   0  0  0  0  0  0
   -3.9223    1.8974    4.7856 H   0  0  0  0  0  0
   -4.0436    3.6075    4.8466 H   0  0  0  0  0  0
   -1.8358    2.6559    5.6059 H   0  0  0  0  0  0
   -0.3703    1.6605    3.7792 H   0  0  0  0  0  0
    0.8720    1.9171   -0.5549 H   0  0  0  0  0  0
    2.5155    1.2028   -0.7278 H   0  0  0  0  0  0
    2.3047    2.8845   -0.2407 H   0  0  0  0  0  0
    1.3829    1.1472    3.5798 H   0  0  0  0  0  0
    2.8327    0.2882    3.3043 H   0  0  0  0  0  0
    1.3590   -0.6126    3.6822 H   0  0  0  0  0  0
    1.8505   -3.8509    2.8181 H   0  0  0  0  0  0
    1.0693   -3.4690    1.2874 H   0  0  0  0  0  0
    0.8314   -2.4523    2.6935 H   0  0  0  0  0  0
    6.0471   -4.7904    0.4267 H   0  0  0  0  0  0
    5.3031   -6.1170    1.3259 H   0  0  0  0  0  0
    5.6971   -4.5977    2.1320 H   0  0  0  0  0  0
    1.5893   -5.5964    0.4358 H   0  0  0  0  0  0
    5.6048   -4.0026   -1.4845 H   0  0  0  0  0  0
    3.4859   -6.6975   -2.5383 H   0  0  0  0  0  0
    3.6405   -5.5763   -3.8472 H   0  0  0  0  0  0
    2.1283   -5.6322   -2.9242 H   0  0  0  0  0  0
    3.2303   -2.0714   -4.2138 H   0  0  0  0  0  0
    4.0014   -3.6036   -4.3879 H   0  0  0  0  0  0
    6.0491   -2.7297   -3.2289 H   0  0  0  0  0  0
    5.2231   -1.1810   -2.9795 H   0  0  0  0  0  0
    5.5936   -1.7379   -4.6137 H   0  0  0  0  0  0
   -0.3052   -2.8523   -4.0505 H   0  0  0  0  0  0
   -0.4754   -1.1006   -4.1524 H   0  0  0  0  0  0
   -1.7983   -2.0981   -3.5122 H   0  0  0  0  0  0
   -3.8960    4.9148    2.5435 H   0  0  0  0  0  0
   -5.4837    4.2646    3.0077 H   0  0  0  0  0  0
   -4.8597    4.0668    1.3638 H   0  0  0  0  0  0
   -1.3758    6.1860    4.8829 H   0  0  0  0  0  0
   -1.4353    4.9807    6.1784 H   0  0  0  0  0  0
   -2.8729    5.3595    5.2099 H   0  0  0  0  0  0
   -1.2694   -0.3549    4.1645 H   0  0  0  0  0  0
    0.5360    3.7795    5.0169 H   0  0  0  0  0  0
    0.4650    5.1571    3.9046 H   0  0  0  0  0  0
    0.4112    3.5473    3.2545 H   0  0  0  0  0  0
  1  2  1
  1  6  1
  2  7  1
  2  3  1
  3  4  1
  4  5  1
  4 24  1
  4 22  1
  5  6  1
  5 25  1
  6 26  1
  8  7  1
  8  9  1
  8 21  1
  9 10  1
  9 27  1
 10 11  1
 10 28  1
 11 12  1
 11 35  1
 11 37  1
 12 13  1
 13 14  1
 13 38  1
 14 15  1
 14 39  2
 15 16  1
 15 40  1
 16 41  1
 16 17  1
 17 18  1
 17 43  1
 17 42  1
 18 19  1
 18 44  1
 19 20  1
 20 21  1
 20 46  2
 21 47  1
 22 23  1
 29 28  1
 29 34  1
 29 30  1
 30 31  1
 31 32  1
 31 48  1
 32 33  1
 33 34  1
 33 49  1
 34 51  1
 35 36  1
 44 45  1
 49 50  1
 49 52  1
 53  2  1
 54  3  1
 55  3  1
 56  5  1
 57  6  1
 58  8  1
 59  9  1
 60 10  1
 61 12  1
 62 12  1
 63 13  1
 64 15  1
 65 16  1
 66 18  1
 67 21  1
 68 23  1
 69 23  1
 70 23  1
 71 24  1
 72 24  1
 73 24  1
 74 25  1
 75 26  1
 76 26  1
 77 26  1
 78 27  1
 79 27  1
 80 27  1
 81 29  1
 82 31  1
 83 32  1
 84 32  1
 85 33  1
 86 34  1
 87 36  1
 88 36  1
 89 36  1
 90 37  1
 91 37  1
 92 37  1
 93 38  1
 94 38  1
 95 38  1
 96 40  1
 97 40  1
 98 40  1
 99 41  1
100 42  1
101 43  1
102 43  1
103 43  1
104 44  1
105 44  1
106 45  1
107 45  1
108 45  1
109 47  1
110 47  1
111 47  1
112 48  1
113 48  1
114 48  1
115 50  1
116 50  1
117 50  1
118 51  1
119 52  1
120 52  1
121 52  1
M  END
> <PUBCHEM_COMPOUND_CID>
84029


> <PUBCHEM_COMPOUND_CANONICALIZED>
1


> <PUBCHEM_CACTVS_COMPLEXITY>
1190


> <PUBCHEM_CACTVS_HBOND_ACCEPTOR>
14


> <PUBCHEM_CACTVS_HBOND_DONOR>
4


> <PUBCHEM_CACTVS_ROTATABLE_BOND>
8


> <PUBCHEM_CACTVS_SUBSKEYS>
AAADcfB+PAAAAAAAAAAAAAAAAAAAAAAAAAAkSAAAAAAAAAAAAAAAHgAACAAADXzxgAcCCAMABgAIAICQ+
CAAAAAAAAAAAAAEIAAATEBYAgAAmQAAHIAAXAAHK7PzOAAAAAAAAAAAAAAAAAAAAAAAAAAAAAA==


> <PUBCHEM_IUPAC_OPENEYE_NAME>
(3R,4S,5S,6R,7R,9R,11R,12R,13S,14R)-6-[(2S,3R,4S,6R)-4-(dimethylamino)-3-hydroxy+
-6-methyl-tetrahydropyran-2-yl]oxy-14-ethyl-12,13-dihydroxy-4-[(2R,4R,5S,6S)-5-h+
ydroxy-4-methoxy-4,6-dimethyl-tetrahydropyran-2-yl]oxy-7-methoxy-3,5,7,9,11,13-h+
examethyl-oxacyclotetradecane-2,10-dione


> <PUBCHEM_IUPAC_CAS_NAME>
(3R,4S,5S,6R,7R,9R,11R,12R,13S,14R)-6-[[(2S,3R,4S,6R)-4-(dimethylamino)-3-hydrox+
y-6-methyl-2-oxanyl]oxy]-14-ethyl-12,13-dihydroxy-4-[[(2R,4R,5S,6S)-5-hydroxy-4-+
methoxy-4,6-dimethyl-2-oxanyl]oxy]-7-methoxy-3,5,7,9,11,13-hexamethyl-oxacyclote+
tradecane-2,10-dione


> <PUBCHEM_IUPAC_NAME_MARKUP>
(3<I>R</I>,4<I>S</I>,5<I>S</I>,6<I>R</I>,7<I>R</I>,9<I>R</I>,11<I>R</I>,12<I>R</+
I>,13<I>S</I>,14<I>R</I>)-6-[(2<I>S</I>,3<I>R</I>,4<I>S</I>,6<I>R</I>)-4-(dimeth+
ylamino)-3-hydroxy-6-methyloxan-2-yl]oxy-14-ethyl-12,13-dihydroxy-4-[(2<I>R</I>,+
4<I>R</I>,5<I>S</I>,6<I>S</I>)-5-hydroxy-4-methoxy-4,6-dimethyloxan-2-yl]oxy-7-m+
ethoxy-3,5,7,9,11,13-hexamethyl-oxacyclotetradecane-2,10-dione


> <PUBCHEM_IUPAC_NAME>
(3R,4S,5S,6R,7R,9R,11R,12R,13S,14R)-6-[(2S,3R,4S,6R)-4-(dimethylamino)-3-hydroxy+
-6-methyloxan-2-yl]oxy-14-ethyl-12,13-dihydroxy-4-[(2R,4R,5S,6S)-5-hydroxy-4-met+
hoxy-4,6-dimethyloxan-2-yl]oxy-7-methoxy-3,5,7,9,11,13-hexamethyl-oxacyclotetrad+
ecane-2,10-dione


> <PUBCHEM_IUPAC_SYSTEMATIC_NAME>
(3R,4S,5S,6R,7R,9R,11R,12R,13S,14R)-6-[(2S,3R,4S,6R)-4-(dimethylamino)-6-methyl-+
3-oxidanyl-oxan-2-yl]oxy-14-ethyl-7-methoxy-4-[(2R,4R,5S,6S)-4-methoxy-4,6-dimet+
hyl-5-oxidanyl-oxan-2-yl]oxy-3,5,7,9,11,13-hexamethyl-12,13-bis(oxidanyl)-1-oxac+
yclotetradecane-2,10-dione


> <PUBCHEM_IUPAC_TRADITIONAL_NAME>
(3R,4S,5S,6R,7R,9R,11R,12R,13S,14R)-6-[(2S,3R,4S,6R)-4-(dimethylamino)-3-hydroxy+
-6-methyl-tetrahydropyran-2-yl]oxy-14-ethyl-12,13-dihydroxy-4-[(2R,4R,5S,6S)-5-h+
ydroxy-4-methoxy-4,6-dimethyl-tetrahydropyran-2-yl]oxy-7-methoxy-3,5,7,9,11,13-h+
examethyl-oxacyclotetradecane-2,10-quinone


> <PUBCHEM_IUPAC_INCHI>
InChI=1S/C38H69NO13/c1-15-26-38(10,45)31(42)21(4)28(40)19(2)17-37(9,47-14)33(52-+
35-29(41)25(39(11)12)16-20(3)48-35)22(5)30(23(6)34(44)50-26)51-27-18-36(8,46-13)+
32(43)24(7)49-27/h19-27,29-33,35,41-43,45H,15-18H2,1-14H3/t19-,20-,21+,22+,23-,2+
4+,25+,26-,27+,29-,30+,31-,32+,33-,35+,36-,37-,38-/m1/s1


> <PUBCHEM_IUPAC_INCHIKEY>
AGOYDEPGAOXOCK-KCBOHYOISA-N


> <PUBCHEM_XLOGP3>
3.2


> <PUBCHEM_EXACT_MASS>
747.47689126


> <PUBCHEM_MOLECULAR_FORMULA>
C38H69NO13


> <PUBCHEM_MOLECULAR_WEIGHT>
748.0


> <PUBCHEM_OPENEYE_CAN_SMILES>
CCC1C(C(C(C(=O)C(CC(C(C(C(C(C(=O)O1)C)OC2CC(C(C(O2)C)O)(C)OC)C)OC3C(C(CC(O3)C)N(+
C)C)O)(C)OC)C)C)O)(C)O


> <PUBCHEM_OPENEYE_ISO_SMILES>
CC[C@@H]1[C@@]([C@@H]([C@H](C(=O)[C@@H](C[C@@]([C@@H]([C@H]([C@@H]([C@H](C(=O)O1+
)C)O[C@H]2C[C@@]([C@H]([C@@H](O2)C)O)(C)OC)C)O[C@H]3[C@@H]([C@H](C[C@H](O3)C)N(C+
)C)O)(C)OC)C)C)O)(C)O


> <PUBCHEM_CACTVS_TPSA>
183


> <PUBCHEM_MONOISOTOPIC_WEIGHT>
747.47689126


> <PUBCHEM_TOTAL_CHARGE>
0


> <PUBCHEM_HEAVY_ATOM_COUNT>
52


> <PUBCHEM_ATOM_DEF_STEREO_COUNT>
18


> <PUBCHEM_ATOM_UDEF_STEREO_COUNT>
0


> <PUBCHEM_BOND_DEF_STEREO_COUNT>
0


> <PUBCHEM_BOND_UDEF_STEREO_COUNT>
0


> <PUBCHEM_ISOTOPIC_ATOM_COUNT>
0


> <PUBCHEM_COMPONENT_COUNT>
1


> <PUBCHEM_CACTVS_TAUTO_COUNT>
-1


> <PUBCHEM_COORDINATE_TYPE>
1
5
255


> <PUBCHEM_BONDANNOTATIONS>
15  1  5
22  1  5
32  10  6
34  11  6
28  14  5
16  23  5
18  2  5
25  2  6
20  40  6
21  41  6
17  3  6
31  43  6
36  47  5
37  48  5
38  45  5
27  7  6
26  8  6
30  9  6


> <JMOL_ATOM_NAMES>
121
1 O1
2 C2
3 C3
4 C4
5 C5
6 C6
7 O7
8 C8
9 C9
10 C10
11 C11
12 C12
13 C13
14 C14
15 C15
16 C16
17 C17
18 C18
19 O19
20 C20
21 C21
22 O22
23 C23
24 C24
25 O25
26 C26
27 C27
28 O28
29 C29
30 O30
31 C31
32 C32
33 C33
34 C34
35 O35
36 C36
37 C37
38 C38
39 O39
40 C40
41 O41
42 O42
43 C43
44 C44
45 C45
46 O46
47 C47
48 C48
49 N49
50 C50
51 O51
52 C52
53 H53
54 H54
55 H55
56 H56
57 H57
58 H58
59 H59
60 H60
61 H61
62 H62
63 H63
64 H64
65 H65
66 H66
67 H67
68 H68
69 H69
70 H70
71 H71
72 H72
73 H73
74 H74
75 H75
76 H76
77 H77
78 H78
79 H79
80 H80
81 H81
82 H82
83 H83
84 H84
85 H85
86 H86
87 H87
88 H88
89 H89
90 H90
91 H91
92 H92
93 H93
94 H94
95 H95
96 H96
97 H97
98 H98
99 H99
100 H100
101 H101
102 H102
103 H103
104 H104
105 H105
106 H106
107 H107
108 H108
109 H109
110 H110
111 H111
112 H112
113 H113
114 H114
115 H115
116 H116
117 H117
118 H118
119 H119
120 H120
121 H121


$$$$
