9268
  -OEChem-04172420183D

 36 36  0     0  0  0  0  0  0999 V2000
   -0.2460   -1.7711    0.3232 C   0  0  0  0  0  0  0  0  0  0  0  0
   -1.5163   -1.7078   -0.5290 C   0  0  0  0  0  0  0  0  0  0  0  0
    0.9988   -2.0502   -0.5245 C   0  0  0  0  0  0  0  0  0  0  0  0
   -2.7051   -1.0643    0.1900 C   0  0  0  0  0  0  0  0  0  0  0  0
    2.3202   -1.6780    0.1671 C   0  0  0  0  0  0  0  0  0  0  0  0
   -2.5216    0.3619    0.7387 C   0  0  0  0  0  0  0  0  0  0  0  0
    2.4393   -0.2232    0.6513 C   0  0  0  0  0  0  0  0  0  0  0  0
   -2.2066    1.4598   -0.2885 C   0  0  0  0  0  0  0  0  0  0  0  0
    2.3052    0.8287   -0.4581 C   0  0  0  0  0  0  0  0  0  0  0  0
   -0.7386    1.6254   -0.7059 C   0  0  0  0  0  0  0  0  0  0  0  0
    1.6749    2.1495    0.0096 C   0  0  0  0  0  0  0  0  0  0  0  0
    0.1958    2.0693    0.4262 C   0  0  0  0  0  0  0  0  0  0  0  0
   -0.3516   -2.5461    1.0918 H   0  0  0  0  0  0  0  0  0  0  0  0
   -0.1262   -0.8311    0.8555 H   0  0  0  0  0  0  0  0  0  0  0  0
   -1.7927   -2.7282   -0.8233 H   0  0  0  0  0  0  0  0  0  0  0  0
   -1.3363   -1.1709   -1.4657 H   0  0  0  0  0  0  0  0  0  0  0  0
    0.9337   -1.5203   -1.4807 H   0  0  0  0  0  0  0  0  0  0  0  0
    1.0219   -3.1173   -0.7786 H   0  0  0  0  0  0  0  0  0  0  0  0
   -2.9922   -1.7117    1.0286 H   0  0  0  0  0  0  0  0  0  0  0  0
   -3.5602   -1.0646   -0.4978 H   0  0  0  0  0  0  0  0  0  0  0  0
    3.1450   -1.8899   -0.5244 H   0  0  0  0  0  0  0  0  0  0  0  0
    2.4621   -2.3396    1.0307 H   0  0  0  0  0  0  0  0  0  0  0  0
   -1.8007    0.3683    1.5607 H   0  0  0  0  0  0  0  0  0  0  0  0
   -3.4798    0.6314    1.2043 H   0  0  0  0  0  0  0  0  0  0  0  0
    3.4254   -0.1007    1.1186 H   0  0  0  0  0  0  0  0  0  0  0  0
    1.7256   -0.0500    1.4609 H   0  0  0  0  0  0  0  0  0  0  0  0
   -2.5420    2.4182    0.1290 H   0  0  0  0  0  0  0  0  0  0  0  0
   -2.8127    1.2921   -1.1872 H   0  0  0  0  0  0  0  0  0  0  0  0
    1.7530    0.4498   -1.3202 H   0  0  0  0  0  0  0  0  0  0  0  0
    3.3119    1.0468   -0.8381 H   0  0  0  0  0  0  0  0  0  0  0  0
   -0.6968    2.3834   -1.4988 H   0  0  0  0  0  0  0  0  0  0  0  0
   -0.3822    0.7032   -1.1610 H   0  0  0  0  0  0  0  0  0  0  0  0
    1.7692    2.8829   -0.8009 H   0  0  0  0  0  0  0  0  0  0  0  0
    2.2560    2.5429    0.8526 H   0  0  0  0  0  0  0  0  0  0  0  0
    0.0991    1.4138    1.2945 H   0  0  0  0  0  0  0  0  0  0  0  0
   -0.1175    3.0646    0.7657 H   0  0  0  0  0  0  0  0  0  0  0  0
  1  2  1  0  0  0  0
  1  3  1  0  0  0  0
  1 13  1  0  0  0  0
  1 14  1  0  0  0  0
  2  4  1  0  0  0  0
  2 15  1  0  0  0  0
  2 16  1  0  0  0  0
  3  5  1  0  0  0  0
  3 17  1  0  0  0  0
  3 18  1  0  0  0  0
  4  6  1  0  0  0  0
  4 19  1  0  0  0  0
  4 20  1  0  0  0  0
  5  7  1  0  0  0  0
  5 21  1  0  0  0  0
  5 22  1  0  0  0  0
  6  8  1  0  0  0  0
  6 23  1  0  0  0  0
  6 24  1  0  0  0  0
  7  9  1  0  0  0  0
  7 25  1  0  0  0  0
  7 26  1  0  0  0  0
  8 10  1  0  0  0  0
  8 27  1  0  0  0  0
  8 28  1  0  0  0  0
  9 11  1  0  0  0  0
  9 29  1  0  0  0  0
  9 30  1  0  0  0  0
 10 12  1  0  0  0  0
 10 31  1  0  0  0  0
 10 32  1  0  0  0  0
 11 12  1  0  0  0  0
 11 33  1  0  0  0  0
 11 34  1  0  0  0  0
 12 35  1  0  0  0  0
 12 36  1  0  0  0  0
M  END
> <PUBCHEM_COMPOUND_CID>
9268

> <PUBCHEM_CONFORMER_RMSD>
0.6

> <PUBCHEM_CONFORMER_DIVERSEORDER>
1
3
4
5
2

> <PUBCHEM_MMFF94_PARTIAL_CHARGES>
0

> <PUBCHEM_EFFECTIVE_ROTOR_COUNT>
2.4

> <PUBCHEM_PHARMACOPHORE_FEATURES>
0

> <PUBCHEM_HEAVY_ATOM_COUNT>
12

> <PUBCHEM_ATOM_DEF_STEREO_COUNT>
0

> <PUBCHEM_ATOM_UDEF_STEREO_COUNT>
0

> <PUBCHEM_BOND_DEF_STEREO_COUNT>
0

> <PUBCHEM_BOND_UDEF_STEREO_COUNT>
0

> <PUBCHEM_ISOTOPIC_ATOM_COUNT>
0

> <PUBCHEM_COMPONENT_COUNT>
1

> <PUBCHEM_CACTVS_TAUTO_COUNT>
1

> <PUBCHEM_CONFORMER_ID>
0000243400000001

> <PUBCHEM_MMFF94_ENERGY>
13.383

> <PUBCHEM_FEATURE_SELFOVERLAP>
0

> <PUBCHEM_SHAPE_FINGERPRINT>
11987891 36 18408323297776597569
12382932 28 18341043013142152104
12696612 119 18409732841687369486
13897977 150 18409727353030362629
14251711 518 17547286065741465822
14251717 144 18267576923782936701
14251745 187 17837496610921944600
15775835 57 18338808921367838745
16945 1 18338796826771458279
17990270 104 18336547131555162104
19930374 2 17466477046567892736
20201158 50 18192707834977400481
21249577 28 18408044013649861358
22721475 48 18265901250196495468
2334 1 18410292523070217894
23590187 169 18339927138232459451
2748010 2 17762617291751989038
2897 32 18121781900328932893
57483677 51 18335144176192839396
66348 1 17977947122088343754

> <PUBCHEM_SHAPE_MULTIPOLES>
246.95
4.11
3.01
0.84
0.46
0.14
0
-0.28
-0.41
-0.48
0.24
0.05
0.02
-0.01

> <PUBCHEM_SHAPE_SELFOVERLAP>
454.564

> <PUBCHEM_SHAPE_VOLUME>
153.8

> <PUBCHEM_COORDINATE_TYPE>
2
5
10

$$$$
