22541
  -OEChem-06242511263D

 27 26  0     0  0  0  0  0  0999 V2000
    0.0059    0.0013    0.8901 O   0  0  0  0  0  0  0  0  0  0  0  0
   -1.1750   -0.0013    0.0870 C   0  0  0  0  0  0  0  0  0  0  0  0
    1.1750   -0.0006    0.0865 C   0  0  0  0  0  0  0  0  0  0  0  0
   -1.1694   -1.2583   -0.7818 C   0  0  0  0  0  0  0  0  0  0  0  0
   -2.3743   -0.0069    1.0325 C   0  0  0  0  0  0  0  0  0  0  0  0
   -1.1783    1.2585   -0.7775 C   0  0  0  0  0  0  0  0  0  0  0  0
    0.8648    0.7199   -1.2248 C   0  0  0  0  0  0  0  0  0  0  0  0
    2.2660    0.7368    0.8598 C   0  0  0  0  0  0  0  0  0  0  0  0
    1.5854   -1.4495   -0.1719 C   0  0  0  0  0  0  0  0  0  0  0  0
   -0.9369   -2.1490   -0.1864 H   0  0  0  0  0  0  0  0  0  0  0  0
   -2.1926   -1.4194   -1.1516 H   0  0  0  0  0  0  0  0  0  0  0  0
   -0.5848   -1.2928   -1.6956 H   0  0  0  0  0  0  0  0  0  0  0  0
   -2.3607    0.8747    1.6840 H   0  0  0  0  0  0  0  0  0  0  0  0
   -2.3382   -0.8789    1.6961 H   0  0  0  0  0  0  0  0  0  0  0  0
   -3.3271   -0.0269    0.4931 H   0  0  0  0  0  0  0  0  0  0  0  0
   -1.1908    1.1818   -1.8731 H   0  0  0  0  0  0  0  0  0  0  0  0
   -2.2260    1.6147   -0.7196 H   0  0  0  0  0  0  0  0  0  0  0  0
   -0.7135    2.1427   -0.3183 H   0  0  0  0  0  0  0  0  0  0  0  0
    0.8775    1.8192   -1.2012 H   0  0  0  0  0  0  0  0  0  0  0  0
    1.8629    0.6558   -1.7138 H   0  0  0  0  0  0  0  0  0  0  0  0
    0.3753    0.2291   -2.0673 H   0  0  0  0  0  0  0  0  0  0  0  0
    2.4649    0.2408    1.8169 H   0  0  0  0  0  0  0  0  0  0  0  0
    1.9486    1.7576    1.1026 H   0  0  0  0  0  0  0  0  0  0  0  0
    3.2039    0.7914    0.2975 H   0  0  0  0  0  0  0  0  0  0  0  0
    1.2464   -1.8662   -1.1221 H   0  0  0  0  0  0  0  0  0  0  0  0
    2.6790   -1.5267   -0.2294 H   0  0  0  0  0  0  0  0  0  0  0  0
    1.2623   -2.1146    0.6368 H   0  0  0  0  0  0  0  0  0  0  0  0
  1  2  1  0  0  0  0
  1  3  1  0  0  0  0
  2  4  1  0  0  0  0
  2  5  1  0  0  0  0
  2  6  1  0  0  0  0
  3  7  1  0  0  0  0
  3  8  1  0  0  0  0
  3  9  1  0  0  0  0
  4 10  1  0  0  0  0
  4 11  1  0  0  0  0
  4 12  1  0  0  0  0
  5 13  1  0  0  0  0
  5 14  1  0  0  0  0
  5 15  1  0  0  0  0
  6 16  1  0  0  0  0
  6 17  1  0  0  0  0
  6 18  1  0  0  0  0
  7 19  1  0  0  0  0
  7 20  1  0  0  0  0
  7 21  1  0  0  0  0
  8 22  1  0  0  0  0
  8 23  1  0  0  0  0
  8 24  1  0  0  0  0
  9 25  1  0  0  0  0
  9 26  1  0  0  0  0
  9 27  1  0  0  0  0
M  END
> <PUBCHEM_COMPOUND_CID>
22541

> <PUBCHEM_CONFORMER_RMSD>
0.4

> <PUBCHEM_CONFORMER_DIVERSEORDER>
1

> <PUBCHEM_MMFF94_PARTIAL_CHARGES>
3
1 -0.56
2 0.28
3 0.28

> <PUBCHEM_EFFECTIVE_ROTOR_COUNT>
2

> <PUBCHEM_PHARMACOPHORE_FEATURES>
3
1 1 acceptor
4 2 4 5 6 hydrophobe
4 3 7 8 9 hydrophobe

> <PUBCHEM_HEAVY_ATOM_COUNT>
9

> <PUBCHEM_ATOM_DEF_STEREO_COUNT>
0

> <PUBCHEM_ATOM_UDEF_STEREO_COUNT>
0

> <PUBCHEM_BOND_DEF_STEREO_COUNT>
0

> <PUBCHEM_BOND_UDEF_STEREO_COUNT>
0

> <PUBCHEM_ISOTOPIC_ATOM_COUNT>
0

> <PUBCHEM_COMPONENT_COUNT>
1

> <PUBCHEM_CACTVS_TAUTO_COUNT>
1

> <PUBCHEM_CONFORMER_ID>
0000580D00000001

> <PUBCHEM_MMFF94_ENERGY>
105.2031

> <PUBCHEM_FEATURE_SELFOVERLAP>
15.224

> <PUBCHEM_SHAPE_FINGERPRINT>
12423570 1 14833874930823273924
137420 1 13340605159515426303
15310529 11 17969519125191484510
16945 1 18408601491408798172
18185500 45 18194398024878198943
21040471 1 17988657288908582699
21922407 69 17703495675295311130
24536 1 17676205766665855236
29004967 10 18040721371928096584
369184 2 18200861946331816184
5084963 1 18190196606343721441

> <PUBCHEM_SHAPE_MULTIPOLES>
179.35
2.85
1.33
1.19
0.04
0.26
-0.04
-0.08
0.86
-0.15
-0.33
0.11
-0.18
0.12

> <PUBCHEM_SHAPE_SELFOVERLAP>
342.906

> <PUBCHEM_SHAPE_VOLUME>
113.5

> <PUBCHEM_COORDINATE_TYPE>
2
5
10

$$$$
