8909
  -OEChem-06242511173D

 27 26  0     0  0  0  0  0  0999 V2000
    0.0001   -0.2504    0.0001 O   0  0  0  0  0  0  0  0  0  0  0  0
    2.3917   -0.3657   -0.0188 C   0  0  0  0  0  0  0  0  0  0  0  0
   -2.3918   -0.3656    0.0188 C   0  0  0  0  0  0  0  0  0  0  0  0
    1.1750    0.5487   -0.0092 C   0  0  0  0  0  0  0  0  0  0  0  0
   -1.1750    0.5488    0.0092 C   0  0  0  0  0  0  0  0  0  0  0  0
    3.6942    0.4294   -0.0129 C   0  0  0  0  0  0  0  0  0  0  0  0
   -3.6943    0.4295    0.0129 C   0  0  0  0  0  0  0  0  0  0  0  0
    4.9065   -0.4873    0.0211 C   0  0  0  0  0  0  0  0  0  0  0  0
   -4.9065   -0.4874   -0.0211 C   0  0  0  0  0  0  0  0  0  0  0  0
    2.3496   -1.0200   -0.8985 H   0  0  0  0  0  0  0  0  0  0  0  0
    2.3500   -1.0319    0.8521 H   0  0  0  0  0  0  0  0  0  0  0  0
   -2.3495   -1.0198    0.8985 H   0  0  0  0  0  0  0  0  0  0  0  0
   -2.3499   -1.0318   -0.8521 H   0  0  0  0  0  0  0  0  0  0  0  0
    1.1912    1.1864    0.8825 H   0  0  0  0  0  0  0  0  0  0  0  0
    1.1783    1.1871   -0.9006 H   0  0  0  0  0  0  0  0  0  0  0  0
   -1.1911    1.1864   -0.8826 H   0  0  0  0  0  0  0  0  0  0  0  0
   -1.1782    1.1872    0.9005 H   0  0  0  0  0  0  0  0  0  0  0  0
    3.7227    1.0924    0.8597 H   0  0  0  0  0  0  0  0  0  0  0  0
    3.7467    1.0647   -0.9048 H   0  0  0  0  0  0  0  0  0  0  0  0
   -3.7228    1.0923   -0.8598 H   0  0  0  0  0  0  0  0  0  0  0  0
   -3.7469    1.0647    0.9047 H   0  0  0  0  0  0  0  0  0  0  0  0
    4.9012   -1.1120    0.9200 H   0  0  0  0  0  0  0  0  0  0  0  0
    4.9259   -1.1444   -0.8542 H   0  0  0  0  0  0  0  0  0  0  0  0
    5.8283    0.1029    0.0232 H   0  0  0  0  0  0  0  0  0  0  0  0
   -4.9011   -1.1121   -0.9201 H   0  0  0  0  0  0  0  0  0  0  0  0
   -4.9258   -1.1446    0.8542 H   0  0  0  0  0  0  0  0  0  0  0  0
   -5.8282    0.1027   -0.0233 H   0  0  0  0  0  0  0  0  0  0  0  0
  1  4  1  0  0  0  0
  1  5  1  0  0  0  0
  2  4  1  0  0  0  0
  2  6  1  0  0  0  0
  2 10  1  0  0  0  0
  2 11  1  0  0  0  0
  3  5  1  0  0  0  0
  3  7  1  0  0  0  0
  3 12  1  0  0  0  0
  3 13  1  0  0  0  0
  4 14  1  0  0  0  0
  4 15  1  0  0  0  0
  5 16  1  0  0  0  0
  5 17  1  0  0  0  0
  6  8  1  0  0  0  0
  6 18  1  0  0  0  0
  6 19  1  0  0  0  0
  7  9  1  0  0  0  0
  7 20  1  0  0  0  0
  7 21  1  0  0  0  0
  8 22  1  0  0  0  0
  8 23  1  0  0  0  0
  8 24  1  0  0  0  0
  9 25  1  0  0  0  0
  9 26  1  0  0  0  0
  9 27  1  0  0  0  0
M  END
> <PUBCHEM_COMPOUND_CID>
8909

> <PUBCHEM_CONFORMER_RMSD>
0.6

> <PUBCHEM_CONFORMER_DIVERSEORDER>
1
79
82
21
91
13
51
15
100
70
81
98
35
63
2
18
68
97
84
5
90
88
71
30
43
102
45
93
32
69
86
101
4
42
22
67
59
89
57
29
27
65
83
24
60
99
66
28
6
19
85
14
87
53
33
55
41
3
52
31
48
73
64
7
76
96
95
9
75
72
36
92
16
23
78
38
46
77
11
74
20
17
47
61
44
94
80
50
8
39
62
12
58
40
56
54
37
10
49
34
25
26

> <PUBCHEM_MMFF94_PARTIAL_CHARGES>
3
1 -0.56
4 0.28
5 0.28

> <PUBCHEM_EFFECTIVE_ROTOR_COUNT>
6

> <PUBCHEM_PHARMACOPHORE_FEATURES>
3
1 1 acceptor
1 8 hydrophobe
1 9 hydrophobe

> <PUBCHEM_HEAVY_ATOM_COUNT>
9

> <PUBCHEM_ATOM_DEF_STEREO_COUNT>
0

> <PUBCHEM_ATOM_UDEF_STEREO_COUNT>
0

> <PUBCHEM_BOND_DEF_STEREO_COUNT>
0

> <PUBCHEM_BOND_UDEF_STEREO_COUNT>
0

> <PUBCHEM_ISOTOPIC_ATOM_COUNT>
0

> <PUBCHEM_COMPONENT_COUNT>
1

> <PUBCHEM_CACTVS_TAUTO_COUNT>
1

> <PUBCHEM_CONFORMER_ID>
000022CD00000001

> <PUBCHEM_MMFF94_ENERGY>
0.613

> <PUBCHEM_FEATURE_SELFOVERLAP>
15.223

> <PUBCHEM_SHAPE_FINGERPRINT>
11062470 55 18410575088958111168
14123238 8 18409167718395840589
17834072 33 18340487871312641844
17834076 25 18410294709197996036
18342897 14 9295289438891809207
20645477 70 18341333280207561774
20719005 15 18410856563945325858
20767249 13 18410571786128247555
20828058 44 16702299079003843719
21119208 17 15719111361661348518
22485316 2 18410570686616782179
23402539 116 18201714051270212941
42788 4 18410575088958130661

> <PUBCHEM_SHAPE_MULTIPOLES>
179.35
10.89
0.81
0.61
0
0.02
0
-1.74
0
0
0
0
0
-0.01

> <PUBCHEM_SHAPE_SELFOVERLAP>
311.438

> <PUBCHEM_SHAPE_VOLUME>
119.9

> <PUBCHEM_COORDINATE_TYPE>
2
5
10

$$$$
