122335
  -OEChem-02032419553D

 48 49  0     0  0  0  0  0  0999 V2000
   -4.5135    0.4362    0.3271 O   0  0  0  0  0  0  0  0  0  0  0  0
   -6.5549   -2.5080    0.2143 O   0  0  0  0  0  0  0  0  0  0  0  0
   -7.0100   -0.3271    0.6084 O   0  0  0  0  0  0  0  0  0  0  0  0
    1.6330    0.6553   -1.7703 O   0  0  0  0  0  0  0  0  0  0  0  0
    2.7710    1.1803    0.2153 N   0  0  0  0  0  0  0  0  0  0  0  0
   -4.7152   -0.9576    0.0918 C   0  0  0  0  0  0  0  0  0  0  0  0
   -3.8578   -1.7339    1.0870 C   0  0  0  0  0  0  0  0  0  0  0  0
   -4.3343   -1.2526   -1.3561 C   0  0  0  0  0  0  0  0  0  0  0  0
   -0.6426    1.8562   -0.1511 C   0  0  0  0  0  0  0  0  0  0  0  0
   -3.2381    0.9045    0.1703 C   0  0  0  0  0  0  0  0  0  0  0  0
    0.7479    2.3669   -0.3227 C   0  0  0  0  0  0  0  0  0  0  0  0
   -6.1988   -1.2033    0.3330 C   0  0  0  0  0  0  0  0  0  0  0  0
   -1.5212    1.8473   -1.2344 C   0  0  0  0  0  0  0  0  0  0  0  0
   -1.0648    1.3882    1.0934 C   0  0  0  0  0  0  0  0  0  0  0  0
   -2.8221    1.3704   -1.0732 C   0  0  0  0  0  0  0  0  0  0  0  0
   -2.3656    0.9112    1.2543 C   0  0  0  0  0  0  0  0  0  0  0  0
    3.8799    0.3013    0.1882 C   0  0  0  0  0  0  0  0  0  0  0  0
    1.7558    1.2954   -0.7309 C   0  0  0  0  0  0  0  0  0  0  0  0
    5.1198   -1.4373   -0.9039 C   0  0  0  0  0  0  0  0  0  0  0  0
    5.8865   -0.5351    1.2021 C   0  0  0  0  0  0  0  0  0  0  0  0
    4.7938    0.3315    1.2284 C   0  0  0  0  0  0  0  0  0  0  0  0
    4.0273   -0.5706   -0.8775 C   0  0  0  0  0  0  0  0  0  0  0  0
    6.0494   -1.4196    0.1359 C   0  0  0  0  0  0  0  0  0  0  0  0
    5.2948   -2.3829   -2.0436 C   0  0  0  0  0  0  0  0  0  0  0  0
    6.8798   -0.5168    2.3142 C   0  0  0  0  0  0  0  0  0  0  0  0
   -4.1062   -2.8016    1.0634 H   0  0  0  0  0  0  0  0  0  0  0  0
   -2.7862   -1.6701    0.8734 H   0  0  0  0  0  0  0  0  0  0  0  0
   -4.0264   -1.3904    2.1140 H   0  0  0  0  0  0  0  0  0  0  0  0
   -4.8342   -0.5668   -2.0496 H   0  0  0  0  0  0  0  0  0  0  0  0
   -4.6416   -2.2673   -1.6360 H   0  0  0  0  0  0  0  0  0  0  0  0
   -3.2560   -1.2020   -1.5368 H   0  0  0  0  0  0  0  0  0  0  0  0
    0.7727    3.1399   -1.1023 H   0  0  0  0  0  0  0  0  0  0  0  0
    1.0617    2.8840    0.5925 H   0  0  0  0  0  0  0  0  0  0  0  0
   -1.2059    2.2127   -2.2082 H   0  0  0  0  0  0  0  0  0  0  0  0
   -0.3905    1.3934    1.9456 H   0  0  0  0  0  0  0  0  0  0  0  0
   -3.5020    1.3926   -1.9197 H   0  0  0  0  0  0  0  0  0  0  0  0
   -2.6872    0.5727    2.2347 H   0  0  0  0  0  0  0  0  0  0  0  0
    2.7310    1.7866    1.0313 H   0  0  0  0  0  0  0  0  0  0  0  0
    4.6661    1.0225    2.0580 H   0  0  0  0  0  0  0  0  0  0  0  0
    3.3450   -0.6378   -1.7120 H   0  0  0  0  0  0  0  0  0  0  0  0
    6.9020   -2.0945    0.1171 H   0  0  0  0  0  0  0  0  0  0  0  0
    5.0961   -1.8815   -2.9970 H   0  0  0  0  0  0  0  0  0  0  0  0
    6.3172   -2.7724   -2.0922 H   0  0  0  0  0  0  0  0  0  0  0  0
    4.6094   -3.2299   -1.9381 H   0  0  0  0  0  0  0  0  0  0  0  0
    7.3142   -1.5098    2.4723 H   0  0  0  0  0  0  0  0  0  0  0  0
    7.6863    0.1870    2.0857 H   0  0  0  0  0  0  0  0  0  0  0  0
    6.4113   -0.2189    3.2584 H   0  0  0  0  0  0  0  0  0  0  0  0
   -7.5135   -2.6415    0.3739 H   0  0  0  0  0  0  0  0  0  0  0  0
  1  6  1  0  0  0  0
  1 10  1  0  0  0  0
  2 12  1  0  0  0  0
  2 48  1  0  0  0  0
  3 12  2  0  0  0  0
  4 18  2  0  0  0  0
  5 17  1  0  0  0  0
  5 18  1  0  0  0  0
  5 38  1  0  0  0  0
  6  7  1  0  0  0  0
  6  8  1  0  0  0  0
  6 12  1  0  0  0  0
  7 26  1  0  0  0  0
  7 27  1  0  0  0  0
  7 28  1  0  0  0  0
  8 29  1  0  0  0  0
  8 30  1  0  0  0  0
  8 31  1  0  0  0  0
  9 11  1  0  0  0  0
  9 13  2  0  0  0  0
  9 14  1  0  0  0  0
 10 15  2  0  0  0  0
 10 16  1  0  0  0  0
 11 18  1  0  0  0  0
 11 32  1  0  0  0  0
 11 33  1  0  0  0  0
 13 15  1  0  0  0  0
 13 34  1  0  0  0  0
 14 16  2  0  0  0  0
 14 35  1  0  0  0  0
 15 36  1  0  0  0  0
 16 37  1  0  0  0  0
 17 21  2  0  0  0  0
 17 22  1  0  0  0  0
 19 22  2  0  0  0  0
 19 23  1  0  0  0  0
 19 24  1  0  0  0  0
 20 21  1  0  0  0  0
 20 23  2  0  0  0  0
 20 25  1  0  0  0  0
 21 39  1  0  0  0  0
 22 40  1  0  0  0  0
 23 41  1  0  0  0  0
 24 42  1  0  0  0  0
 24 43  1  0  0  0  0
 24 44  1  0  0  0  0
 25 45  1  0  0  0  0
 25 46  1  0  0  0  0
 25 47  1  0  0  0  0
M  END
> <PUBCHEM_COMPOUND_CID>
122335

> <PUBCHEM_CONFORMER_RMSD>
0.8

> <PUBCHEM_CONFORMER_DIVERSEORDER>
1
101
32
154
49
148
118
44
54
124
117
146
102
140
53
38
97
69
134
147
25
163
156
20
48
16
28
88
144
79
114
39
47
137
30
105
93
112
141
14
59
70
159
24
66
143
67
136
127
63
158
76
21
15
72
17
52
36
139
83
10
103
92
149
80
57
51
26
4
18
125
23
106
90
121
133
74
6
155
5
94
31
135
115
12
3
122
109
87
152
71
86
142
130
150
98
62
132
65
19
43
73
33
108
89
116
78
42
55
61
129
46
45
110
157
37
119
104
85
91
153
113
151
128
60
82
138
160
13
145
120
35
96
131
64
75
111
123
8
95
29
126
107
34
162
84
56
81
41
50
11
100
9
68
161
22
7
99
77
2
27
58
40

> <PUBCHEM_MMFF94_PARTIAL_CHARGES>
32
1 -0.36
10 0.08
11 0.2
12 0.66
13 -0.15
14 -0.15
15 -0.15
16 -0.15
17 0.12
18 0.57
19 -0.14
2 -0.65
20 -0.14
21 -0.15
22 -0.15
23 -0.15
24 0.14
25 0.14
3 -0.57
34 0.15
35 0.15
36 0.15
37 0.15
38 0.37
39 0.15
4 -0.57
40 0.15
41 0.15
48 0.5
5 -0.55
6 0.34
9 -0.14

> <PUBCHEM_EFFECTIVE_ROTOR_COUNT>
7

> <PUBCHEM_PHARMACOPHORE_FEATURES>
9
1 1 acceptor
1 2 acceptor
1 3 acceptor
1 4 acceptor
1 5 donor
3 2 3 12 anion
3 6 7 8 hydrophobe
6 17 19 20 21 22 23 rings
6 9 10 13 14 15 16 rings

> <PUBCHEM_HEAVY_ATOM_COUNT>
25

> <PUBCHEM_ATOM_DEF_STEREO_COUNT>
0

> <PUBCHEM_ATOM_UDEF_STEREO_COUNT>
0

> <PUBCHEM_BOND_DEF_STEREO_COUNT>
0

> <PUBCHEM_BOND_UDEF_STEREO_COUNT>
0

> <PUBCHEM_ISOTOPIC_ATOM_COUNT>
0

> <PUBCHEM_COMPONENT_COUNT>
1

> <PUBCHEM_CACTVS_TAUTO_COUNT>
2

> <PUBCHEM_CONFORMER_ID>
0001DDDF00000001

> <PUBCHEM_MMFF94_ENERGY>
85.5789

> <PUBCHEM_FEATURE_SELFOVERLAP>
45.742

> <PUBCHEM_SHAPE_FINGERPRINT>
10 15 14620794924758034169
10622 236 16372388296055313696
106641 1 14404899241756239525
10753850 27 18259984885791700865
10981352 41 18273214226650546550
11443803 9 18189910876405277564
11796584 16 18263074436140846900
11809386 21 17821722797992652521
12342043 65 17701830878248853262
12596602 18 15554726689670749927
12760667 363 18334012809341352793
12892183 10 17417811682923476968
13533116 47 18271812366536565144
14068700 675 17967250888469691268
14216079 64 18408041827854678303
14251751 18 18408601465633901477
14341114 176 16988842757506553120
14341114 328 14476955679878382452
14347332 77 17676482813589780405
14556957 393 15502379976227895575
14848178 5 18410577300892649015
14950920 106 16845015594048061114
15183329 4 13045936885370066696
15188451 53 18408880733166110200
15510800 12 18409176523206158178
1768 124 18131350842725638679
17857418 61 18040151808078454408
18222031 100 18041005012328265620
19377110 9 16200140028424050068
193927 3 18334867129232679741
19784866 240 18335145301880823109
20028762 73 18410576188876661418
20403669 9 18335141998523224463
21315759 148 17988641840443910720
21315763 87 17917712422197644898
21585480 29 17416669436023225966
21623969 137 17988638580611400426
21781051 124 16878521136783315851
21968339 14 15502674727934818878
23198884 109 13406792216613196243
23516275 100 10738153328265839942
23522609 53 17897758433416314661
23559900 14 16878513461060033173
249057 25 11026612373139401421
25122255 55 18410019835665478451
270888 7 10159702382515408687
2748736 6 11167942437615522099
2838139 119 8213875738518327483
3004659 81 18041005054686978020
312425 54 17987807302027399594
3383291 50 18409169952518411179
3388396 114 16299541372690389732
3472631 163 7781511499445909560
38570 142 8070035492520990357
392239 28 16845283973220729314
463206 1 18187086208287299915
5104073 3 17131275645330747248
559249 180 18334010576159000641
5718773 13 18186794777629027674
59682541 52 14562521882269980250
60123966 16 12829502420175044594
6438161 24 18113611331166163683
7808743 9 11095881562227822085
86090 222 18272382931947511702
8863177 126 18059297535945949438
960060 61 16081094775198227628

> <PUBCHEM_SHAPE_MULTIPOLES>
486.03
19.25
2.43
1.7
0.84
0.33
-0.01
14.7
-5.52
-1.15
0.67
2.29
0.34
1.51

> <PUBCHEM_SHAPE_SELFOVERLAP>
1029.221

> <PUBCHEM_SHAPE_VOLUME>
272.4

> <PUBCHEM_COORDINATE_TYPE>
2
5
10

$$$$
