33259
  -OEChem-07152518513D

 46 48  0     0  0  0  0  0  0999 V2000
   -6.1078   -1.3624   -0.1932 S   0  0  0  0  0  0  0  0  0  0  0  0
    5.9204   -2.1445    0.2479 S   0  0  0  0  0  0  0  0  0  0  0  0
   -2.8305    2.5077    0.2177 O   0  0  0  0  0  0  0  0  0  0  0  0
    0.3274    3.6815   -0.5543 O   0  0  0  0  0  0  0  0  0  0  0  0
   -6.1164   -2.0288   -1.6850 O   0  0  0  0  0  0  0  0  0  0  0  0
    6.4707   -2.4174   -1.2673 O   0  0  0  0  0  0  0  0  0  0  0  0
   -6.3017   -2.4447    0.7588 O   0  0  0  0  0  0  0  0  0  0  0  0
   -6.9968   -0.2125   -0.2048 O   0  0  0  0  0  0  0  0  0  0  0  0
    6.9568   -1.4004    0.9484 O   0  0  0  0  0  0  0  0  0  0  0  0
    5.4219   -3.4030    0.7807 O   0  0  0  0  0  0  0  0  0  0  0  0
   -0.0773    0.9479   -0.5878 N   0  0  0  0  0  0  0  0  0  0  0  0
   -0.6245    0.8038    0.5281 N   0  0  0  0  0  0  0  0  0  0  0  0
    2.3202    0.5989   -0.2612 C   0  0  0  0  0  0  0  0  0  0  0  0
    3.6122    1.1515   -0.0921 C   0  0  0  0  0  0  0  0  0  0  0  0
    1.2206    1.4584   -0.4165 C   0  0  0  0  0  0  0  0  0  0  0  0
    4.5402   -1.0928    0.0518 C   0  0  0  0  0  0  0  0  0  0  0  0
    4.7118    0.2918    0.0629 C   0  0  0  0  0  0  0  0  0  0  0  0
   -4.4844   -0.7445    0.0204 C   0  0  0  0  0  0  0  0  0  0  0  0
   -3.3977   -1.6055    0.1735 C   0  0  0  0  0  0  0  0  0  0  0  0
    2.1661   -0.7971   -0.2704 C   0  0  0  0  0  0  0  0  0  0  0  0
    3.7661    2.5475   -0.0834 C   0  0  0  0  0  0  0  0  0  0  0  0
    3.2699   -1.6362   -0.1147 C   0  0  0  0  0  0  0  0  0  0  0  0
   -1.9228    0.2933    0.3573 C   0  0  0  0  0  0  0  0  0  0  0  0
    1.3919    2.8429   -0.4049 C   0  0  0  0  0  0  0  0  0  0  0  0
   -2.1143   -1.0855    0.3423 C   0  0  0  0  0  0  0  0  0  0  0  0
   -3.0046    1.1563    0.2047 C   0  0  0  0  0  0  0  0  0  0  0  0
   -4.2878    0.6363    0.0361 C   0  0  0  0  0  0  0  0  0  0  0  0
    2.6623    3.3864   -0.2388 C   0  0  0  0  0  0  0  0  0  0  0  0
   -3.5744   -3.0888    0.1611 C   0  0  0  0  0  0  0  0  0  0  0  0
   -2.9175    3.1599    1.4828 C   0  0  0  0  0  0  0  0  0  0  0  0
    5.7058    0.7173    0.1853 H   0  0  0  0  0  0  0  0  0  0  0  0
    1.1933   -1.2631   -0.4057 H   0  0  0  0  0  0  0  0  0  0  0  0
    4.7498    2.9945    0.0451 H   0  0  0  0  0  0  0  0  0  0  0  0
    3.1134   -2.7110   -0.1360 H   0  0  0  0  0  0  0  0  0  0  0  0
   -1.2625   -1.7501    0.4659 H   0  0  0  0  0  0  0  0  0  0  0  0
   -5.1148    1.3303   -0.0847 H   0  0  0  0  0  0  0  0  0  0  0  0
    2.8103    4.4630   -0.2277 H   0  0  0  0  0  0  0  0  0  0  0  0
   -4.1204   -3.4333   -0.7188 H   0  0  0  0  0  0  0  0  0  0  0  0
   -2.6026   -3.5960    0.1185 H   0  0  0  0  0  0  0  0  0  0  0  0
   -4.0602   -3.4346    1.0779 H   0  0  0  0  0  0  0  0  0  0  0  0
    0.6397    4.6019   -0.5178 H   0  0  0  0  0  0  0  0  0  0  0  0
   -5.9081   -2.9908   -1.7277 H   0  0  0  0  0  0  0  0  0  0  0  0
    6.7764   -1.6175   -1.7564 H   0  0  0  0  0  0  0  0  0  0  0  0
   -2.7448    4.2286    1.3294 H   0  0  0  0  0  0  0  0  0  0  0  0
   -2.1545    2.7778    2.1682 H   0  0  0  0  0  0  0  0  0  0  0  0
   -3.9137    3.0248    1.9160 H   0  0  0  0  0  0  0  0  0  0  0  0
  1  5  1  0  0  0  0
  1  7  2  0  0  0  0
  1  8  2  0  0  0  0
  1 18  1  0  0  0  0
  2  6  1  0  0  0  0
  2  9  2  0  0  0  0
  2 10  2  0  0  0  0
  2 16  1  0  0  0  0
  3 26  1  0  0  0  0
  3 30  1  0  0  0  0
  4 24  1  0  0  0  0
  4 41  1  0  0  0  0
  5 42  1  0  0  0  0
  6 43  1  0  0  0  0
 11 12  2  0  0  0  0
 11 15  1  0  0  0  0
 12 23  1  0  0  0  0
 13 14  2  0  0  0  0
 13 15  1  0  0  0  0
 13 20  1  0  0  0  0
 14 17  1  0  0  0  0
 14 21  1  0  0  0  0
 15 24  2  0  0  0  0
 16 17  2  0  0  0  0
 16 22  1  0  0  0  0
 17 31  1  0  0  0  0
 18 19  1  0  0  0  0
 18 27  2  0  0  0  0
 19 25  2  0  0  0  0
 19 29  1  0  0  0  0
 20 22  2  0  0  0  0
 20 32  1  0  0  0  0
 21 28  2  0  0  0  0
 21 33  1  0  0  0  0
 22 34  1  0  0  0  0
 23 25  1  0  0  0  0
 23 26  2  0  0  0  0
 24 28  1  0  0  0  0
 25 35  1  0  0  0  0
 26 27  1  0  0  0  0
 27 36  1  0  0  0  0
 28 37  1  0  0  0  0
 29 38  1  0  0  0  0
 29 39  1  0  0  0  0
 29 40  1  0  0  0  0
 30 44  1  0  0  0  0
 30 45  1  0  0  0  0
 30 46  1  0  0  0  0
M  END
> <PUBCHEM_COMPOUND_CID>
33259

> <PUBCHEM_CONFORMER_RMSD>
0.8

> <PUBCHEM_CONFORMER_DIVERSEORDER>
1
4
10
7
6
8
9
3
2
5

> <PUBCHEM_MMFF94_PARTIAL_CHARGES>
38
1 1.49
10 -0.65
11 -0.18
12 -0.18
15 0.18
16 -0.01
17 -0.15
18 -0.01
19 -0.14
2 1.49
20 -0.15
21 -0.15
22 -0.15
23 0.18
24 0.08
25 -0.15
26 0.08
27 -0.15
28 -0.15
29 0.14
3 -0.36
30 0.28
31 0.15
32 0.15
33 0.15
34 0.15
35 0.15
36 0.15
37 0.15
4 -0.53
41 0.45
42 0.5
43 0.5
5 -0.68
6 -0.68
7 -0.65
8 -0.65
9 -0.65

> <PUBCHEM_EFFECTIVE_ROTOR_COUNT>
5

> <PUBCHEM_PHARMACOPHORE_FEATURES>
13
1 10 acceptor
1 3 acceptor
1 4 donor
1 5 acceptor
1 6 acceptor
1 7 acceptor
1 8 acceptor
1 9 acceptor
4 1 5 7 8 anion
4 2 6 9 10 anion
6 13 14 15 21 24 28 rings
6 13 14 16 17 20 22 rings
6 18 19 23 25 26 27 rings

> <PUBCHEM_HEAVY_ATOM_COUNT>
30

> <PUBCHEM_ATOM_DEF_STEREO_COUNT>
0

> <PUBCHEM_ATOM_UDEF_STEREO_COUNT>
0

> <PUBCHEM_BOND_DEF_STEREO_COUNT>
0

> <PUBCHEM_BOND_UDEF_STEREO_COUNT>
0

> <PUBCHEM_ISOTOPIC_ATOM_COUNT>
0

> <PUBCHEM_COMPONENT_COUNT>
1

> <PUBCHEM_CACTVS_TAUTO_COUNT>
3

> <PUBCHEM_CONFORMER_ID>
000081EB00000001

> <PUBCHEM_MMFF94_ENERGY>
83.2257

> <PUBCHEM_FEATURE_SELFOVERLAP>
66.115

> <PUBCHEM_SHAPE_FINGERPRINT>
10050765 1 18410294696693941732
10411042 1 18337108961402957236
11963148 33 18050282866931002078
12107183 9 18267875982065938497
12107698 1 18412543206324664751
12166972 35 18272933825668321882
12403260 363 18413392038044177705
12422481 6 17345465991227433390
12760667 363 18413669119691389707
13533116 47 18339923821847813488
13540713 5 18339382806319480665
14068700 675 18343580742077338961
14117953 113 18342740680670976231
14341114 176 18410860996462488085
14347332 77 18412262831165348653
14866123 147 18122064200013646433
15320467 1 17256811620575692890
15420108 30 17763185735575997481
17492 89 18337393858619543227
17857418 61 18341050800128758615
19319366 153 17837211841436838636
19958102 18 18187074083990443991
20028762 73 18272368659692085230
21033648 29 13613977582323824147
21267235 1 18410581668980065830
21792934 111 18342734127315455081
23522609 53 18121535455132843164
23559900 14 18337667645931978105
23622692 118 18412543201892410972
3004659 81 18259701220086237515
335352 9 18336829672032383317
3383291 50 18335421287853154059
3421961 26 18410291441445620408
4015057 19 18194676189268255673
4073 2 17970350536170145842
4409770 3 17682675130007821156
4461854 278 18060145362058312910
46194498 28 17386283319486833452
4756088 132 17763173649201397150
5104073 3 18201726158224234953
559249 180 18410009901980927827
59755656 215 18265055919218551700
6695519 79 17185904102704221848
7970288 3 18264203613582860482
9709674 26 18189904290753647723

> <PUBCHEM_SHAPE_MULTIPOLES>
568.17
17.16
4.36
0.9
3.28
1.57
0.02
-16.06
0.21
-2.27
-0.24
0.25
-0.07
-1.27

> <PUBCHEM_SHAPE_SELFOVERLAP>
1218.621

> <PUBCHEM_SHAPE_VOLUME>
316

> <PUBCHEM_COORDINATE_TYPE>
2
5
10

$$$$
