2723872
  -OEChem-05282512363D

 24 24  0     1  0  0  0  0  0999 V2000
    0.6618    1.3230   -0.0993 O   0  0  0  0  0  0  0  0  0  0  0  0
    0.0905   -2.3090   -0.1069 O   0  0  0  0  0  0  0  0  0  0  0  0
    1.3199   -0.3534    1.4360 O   0  0  0  0  0  0  0  0  0  0  0  0
   -2.6062   -1.2361   -0.0845 O   0  0  0  0  0  0  0  0  0  0  0  0
   -2.0587    1.2720   -1.0690 O   0  0  0  0  0  0  0  0  0  0  0  0
    3.2708    0.4758   -0.3702 O   0  0  0  0  0  0  0  0  0  0  0  0
   -0.2099   -0.9371   -0.3514 C   0  0  2  0  0  0  0  0  0  0  0  0
    0.9863   -0.0636    0.0748 C   0  0  1  0  0  0  0  0  0  0  0  0
   -1.4718   -0.5351    0.4176 C   0  0  1  0  0  0  0  0  0  0  0  0
   -1.7212    0.9670    0.2864 C   0  0  1  0  0  0  0  0  0  0  0  0
   -0.4712    1.7540    0.6620 C   0  0  0  0  0  0  0  0  0  0  0  0
    2.2098   -0.3575   -0.7956 C   0  0  0  0  0  0  0  0  0  0  0  0
   -0.4002   -0.8301   -1.4272 H   0  0  0  0  0  0  0  0  0  0  0  0
   -1.3729   -0.8117    1.4736 H   0  0  0  0  0  0  0  0  0  0  0  0
   -2.5694    1.2770    0.9065 H   0  0  0  0  0  0  0  0  0  0  0  0
   -0.6141    2.8159    0.4361 H   0  0  0  0  0  0  0  0  0  0  0  0
   -0.2485    1.6651    1.7310 H   0  0  0  0  0  0  0  0  0  0  0  0
    2.0165   -0.1492   -1.8528 H   0  0  0  0  0  0  0  0  0  0  0  0
    2.5517   -1.3906   -0.6875 H   0  0  0  0  0  0  0  0  0  0  0  0
    0.7358   -2.5963   -0.7743 H   0  0  0  0  0  0  0  0  0  0  0  0
    2.2555   -0.1275    1.5717 H   0  0  0  0  0  0  0  0  0  0  0  0
   -2.6215   -1.1375   -1.0513 H   0  0  0  0  0  0  0  0  0  0  0  0
   -2.9294    0.8786   -1.2485 H   0  0  0  0  0  0  0  0  0  0  0  0
    2.9749    1.3979   -0.4593 H   0  0  0  0  0  0  0  0  0  0  0  0
  1  8  1  0  0  0  0
  1 11  1  0  0  0  0
  2  7  1  0  0  0  0
  2 20  1  0  0  0  0
  3  8  1  0  0  0  0
  3 21  1  0  0  0  0
  4  9  1  0  0  0  0
  4 22  1  0  0  0  0
  5 10  1  0  0  0  0
  5 23  1  0  0  0  0
  6 12  1  0  0  0  0
  6 24  1  0  0  0  0
  7  8  1  0  0  0  0
  7  9  1  0  0  0  0
  7 13  1  0  0  0  0
  8 12  1  0  0  0  0
  9 10  1  0  0  0  0
  9 14  1  0  0  0  0
 10 11  1  0  0  0  0
 10 15  1  0  0  0  0
 11 16  1  0  0  0  0
 11 17  1  0  0  0  0
 12 18  1  0  0  0  0
 12 19  1  0  0  0  0
M  END
> <PUBCHEM_COMPOUND_CID>
2723872

> <PUBCHEM_CONFORMER_RMSD>
0.6

> <PUBCHEM_CONFORMER_DIVERSEORDER>
1
3
5
6
4
2
7

> <PUBCHEM_MMFF94_PARTIAL_CHARGES>
17
1 -0.56
10 0.28
11 0.28
12 0.28
2 -0.68
20 0.4
21 0.4
22 0.4
23 0.4
24 0.4
3 -0.68
4 -0.68
5 -0.68
6 -0.68
7 0.28
8 0.56
9 0.28

> <PUBCHEM_EFFECTIVE_ROTOR_COUNT>
2.2

> <PUBCHEM_PHARMACOPHORE_FEATURES>
12
1 1 acceptor
1 2 acceptor
1 2 donor
1 3 acceptor
1 3 donor
1 4 acceptor
1 4 donor
1 5 acceptor
1 5 donor
1 6 acceptor
1 6 donor
6 1 7 8 9 10 11 rings

> <PUBCHEM_HEAVY_ATOM_COUNT>
12

> <PUBCHEM_ATOM_DEF_STEREO_COUNT>
3

> <PUBCHEM_ATOM_UDEF_STEREO_COUNT>
1

> <PUBCHEM_BOND_DEF_STEREO_COUNT>
0

> <PUBCHEM_BOND_UDEF_STEREO_COUNT>
0

> <PUBCHEM_ISOTOPIC_ATOM_COUNT>
0

> <PUBCHEM_COMPONENT_COUNT>
1

> <PUBCHEM_CACTVS_TAUTO_COUNT>
1

> <PUBCHEM_CONFORMER_ID>
0029902000000001

> <PUBCHEM_MMFF94_ENERGY>
32.0143

> <PUBCHEM_FEATURE_SELFOVERLAP>
60.975

> <PUBCHEM_SHAPE_FINGERPRINT>
11206711 2 18409445912281275085
12423570 1 16405343764653297829
12716758 59 18411989035579438254
12897270 3 18341338781859688052
13024252 1 15864361297466645840
15310529 11 17168146693762958705
15775835 57 17967821517871772612
161256 15 18122903402389802377
16945 1 17749962161987499650
20653085 51 17750255663257839236
21040471 1 18051971424716983633
21922407 69 16009901409657073739
22802520 49 17843423803102446566
23235685 24 18268995297613615169
23552423 10 18263652757729408118
241688 4 17760086615448501331
2748010 2 18340480183585159753
29004967 10 15554173575482190198
369184 2 17095531681673558424
5084963 1 18059861704799319347
528886 8 18342746169417153089
6333449 129 18342741831938066348

> <PUBCHEM_SHAPE_MULTIPOLES>
211.74
3.33
1.81
0.93
1.28
0.31
-0.1
-0.18
0.65
-0.61
-0.02
0.07
-0.11
0.08

> <PUBCHEM_SHAPE_SELFOVERLAP>
425.864

> <PUBCHEM_SHAPE_VOLUME>
122.6

> <PUBCHEM_COORDINATE_TYPE>
2
5
10

$$$$
