5460712
  -OEChem-04282411133D

 48 54  0     0  0  0  0  0  0999 V2000
    1.2259   -0.7040   -0.0010 C   0  0  0  0  0  0  0  0  0  0  0  0
    1.2259    0.7042   -0.0013 C   0  0  0  0  0  0  0  0  0  0  0  0
   -1.2259   -0.7040   -0.0006 C   0  0  0  0  0  0  0  0  0  0  0  0
   -1.2259    0.7042   -0.0009 C   0  0  0  0  0  0  0  0  0  0  0  0
    3.6777   -0.7043   -0.0009 C   0  0  0  0  0  0  0  0  0  0  0  0
    3.6777    0.7043   -0.0010 C   0  0  0  0  0  0  0  0  0  0  0  0
   -3.6777   -0.7045    0.0000 C   0  0  0  0  0  0  0  0  0  0  0  0
   -3.6778    0.7042   -0.0004 C   0  0  0  0  0  0  0  0  0  0  0  0
    0.0000   -1.3909   -0.0008 C   0  0  0  0  0  0  0  0  0  0  0  0
    0.0001    1.3910   -0.0012 C   0  0  0  0  0  0  0  0  0  0  0  0
    2.4517   -1.3910   -0.0009 C   0  0  0  0  0  0  0  0  0  0  0  0
    2.4517    1.3911   -0.0015 C   0  0  0  0  0  0  0  0  0  0  0  0
   -2.4516   -1.3911   -0.0002 C   0  0  0  0  0  0  0  0  0  0  0  0
   -2.4518    1.3910   -0.0004 C   0  0  0  0  0  0  0  0  0  0  0  0
    4.9030   -1.3924   -0.0009 C   0  0  0  0  0  0  0  0  0  0  0  0
    4.9031    1.3924    0.0000 C   0  0  0  0  0  0  0  0  0  0  0  0
   -4.9030   -1.3924    0.0005 C   0  0  0  0  0  0  0  0  0  0  0  0
   -4.9031    1.3923   -0.0003 C   0  0  0  0  0  0  0  0  0  0  0  0
    6.1286   -0.7059   -0.0001 C   0  0  0  0  0  0  0  0  0  0  0  0
    6.1287    0.7059    0.0008 C   0  0  0  0  0  0  0  0  0  0  0  0
   -6.1287   -0.7058    0.0006 C   0  0  0  0  0  0  0  0  0  0  0  0
   -6.1287    0.7058    0.0001 C   0  0  0  0  0  0  0  0  0  0  0  0
    7.3540   -1.3930    0.0001 C   0  0  0  0  0  0  0  0  0  0  0  0
    7.3540    1.3928    0.0022 C   0  0  0  0  0  0  0  0  0  0  0  0
   -7.3540   -1.3929    0.0015 C   0  0  0  0  0  0  0  0  0  0  0  0
   -7.3540    1.3930    0.0003 C   0  0  0  0  0  0  0  0  0  0  0  0
    8.5622   -0.6956    0.0013 C   0  0  0  0  0  0  0  0  0  0  0  0
    8.5623    0.6956    0.0026 C   0  0  0  0  0  0  0  0  0  0  0  0
   -8.5623   -0.6956    0.0015 C   0  0  0  0  0  0  0  0  0  0  0  0
   -8.5622    0.6956    0.0009 C   0  0  0  0  0  0  0  0  0  0  0  0
    0.0000   -2.4810   -0.0006 H   0  0  0  0  0  0  0  0  0  0  0  0
    0.0000    2.4812   -0.0012 H   0  0  0  0  0  0  0  0  0  0  0  0
    2.4515   -2.4812   -0.0007 H   0  0  0  0  0  0  0  0  0  0  0  0
    2.4517    2.4813   -0.0014 H   0  0  0  0  0  0  0  0  0  0  0  0
   -2.4513   -2.4812    0.0000 H   0  0  0  0  0  0  0  0  0  0  0  0
   -2.4517    2.4812   -0.0004 H   0  0  0  0  0  0  0  0  0  0  0  0
    4.9028   -2.4825   -0.0012 H   0  0  0  0  0  0  0  0  0  0  0  0
    4.9028    2.4826    0.0004 H   0  0  0  0  0  0  0  0  0  0  0  0
   -4.9028   -2.4826    0.0009 H   0  0  0  0  0  0  0  0  0  0  0  0
   -4.9027    2.4823   -0.0005 H   0  0  0  0  0  0  0  0  0  0  0  0
    7.3776   -2.4808   -0.0007 H   0  0  0  0  0  0  0  0  0  0  0  0
    7.3776    2.4807    0.0030 H   0  0  0  0  0  0  0  0  0  0  0  0
   -7.3776   -2.4808    0.0020 H   0  0  0  0  0  0  0  0  0  0  0  0
   -7.3776    2.4808    0.0000 H   0  0  0  0  0  0  0  0  0  0  0  0
    9.5024   -1.2393    0.0015 H   0  0  0  0  0  0  0  0  0  0  0  0
    9.5024    1.2392    0.0037 H   0  0  0  0  0  0  0  0  0  0  0  0
   -9.5025   -1.2392    0.0020 H   0  0  0  0  0  0  0  0  0  0  0  0
   -9.5024    1.2393    0.0009 H   0  0  0  0  0  0  0  0  0  0  0  0
  1  2  1  0  0  0  0
  1  9  2  0  0  0  0
  1 11  1  0  0  0  0
  2 10  2  0  0  0  0
  2 12  1  0  0  0  0
  3  4  1  0  0  0  0
  3  9  1  0  0  0  0
  3 13  2  0  0  0  0
  4 10  1  0  0  0  0
  4 14  2  0  0  0  0
  5  6  1  0  0  0  0
  5 11  2  0  0  0  0
  5 15  1  0  0  0  0
  6 12  2  0  0  0  0
  6 16  1  0  0  0  0
  7  8  1  0  0  0  0
  7 13  1  0  0  0  0
  7 17  2  0  0  0  0
  8 14  1  0  0  0  0
  8 18  2  0  0  0  0
  9 31  1  0  0  0  0
 10 32  1  0  0  0  0
 11 33  1  0  0  0  0
 12 34  1  0  0  0  0
 13 35  1  0  0  0  0
 14 36  1  0  0  0  0
 15 19  2  0  0  0  0
 15 37  1  0  0  0  0
 16 20  2  0  0  0  0
 16 38  1  0  0  0  0
 17 21  1  0  0  0  0
 17 39  1  0  0  0  0
 18 22  1  0  0  0  0
 18 40  1  0  0  0  0
 19 20  1  0  0  0  0
 19 23  1  0  0  0  0
 20 24  1  0  0  0  0
 21 22  1  0  0  0  0
 21 25  2  0  0  0  0
 22 26  2  0  0  0  0
 23 27  2  0  0  0  0
 23 41  1  0  0  0  0
 24 28  2  0  0  0  0
 24 42  1  0  0  0  0
 25 29  1  0  0  0  0
 25 43  1  0  0  0  0
 26 30  1  0  0  0  0
 26 44  1  0  0  0  0
 27 28  1  0  0  0  0
 27 45  1  0  0  0  0
 28 46  1  0  0  0  0
 29 30  2  0  0  0  0
 29 47  1  0  0  0  0
 30 48  1  0  0  0  0
M  END
> <PUBCHEM_COMPOUND_CID>
5460712

> <PUBCHEM_CONFORMER_RMSD>
0.6

> <PUBCHEM_CONFORMER_DIVERSEORDER>
1

> <PUBCHEM_MMFF94_PARTIAL_CHARGES>
36
10 -0.15
11 -0.15
12 -0.15
13 -0.15
14 -0.15
15 -0.15
16 -0.15
17 -0.15
18 -0.15
23 -0.15
24 -0.15
25 -0.15
26 -0.15
27 -0.15
28 -0.15
29 -0.15
30 -0.15
31 0.15
32 0.15
33 0.15
34 0.15
35 0.15
36 0.15
37 0.15
38 0.15
39 0.15
40 0.15
41 0.15
42 0.15
43 0.15
44 0.15
45 0.15
46 0.15
47 0.15
48 0.15
9 -0.15

> <PUBCHEM_EFFECTIVE_ROTOR_COUNT>
0

> <PUBCHEM_PHARMACOPHORE_FEATURES>
7
6 1 2 3 4 9 10 rings
6 1 2 5 6 11 12 rings
6 19 20 23 24 27 28 rings
6 21 22 25 26 29 30 rings
6 3 4 7 8 13 14 rings
6 5 6 15 16 19 20 rings
6 7 8 17 18 21 22 rings

> <PUBCHEM_HEAVY_ATOM_COUNT>
30

> <PUBCHEM_ATOM_DEF_STEREO_COUNT>
0

> <PUBCHEM_ATOM_UDEF_STEREO_COUNT>
0

> <PUBCHEM_BOND_DEF_STEREO_COUNT>
0

> <PUBCHEM_BOND_UDEF_STEREO_COUNT>
0

> <PUBCHEM_ISOTOPIC_ATOM_COUNT>
0

> <PUBCHEM_COMPONENT_COUNT>
1

> <PUBCHEM_CACTVS_TAUTO_COUNT>
1

> <PUBCHEM_CONFORMER_ID>
005352E800000001

> <PUBCHEM_MMFF94_ENERGY>
105.4313

> <PUBCHEM_FEATURE_SELFOVERLAP>
35.678

> <PUBCHEM_SHAPE_FINGERPRINT>
10 15 18187364328688492465
10050765 1 18050286972739544454
100830 39 18410573938688344657
10299344 5 18410575088958052704
11135926 11 18336536166921017391
11315181 36 18201722847742971937
11408170 108 16128104330973423518
11524674 6 16702019798618505839
11719270 70 18202001010846820798
12089408 11 18410573985151451143
12236239 1 18410856563934756869
12522641 33 17775287144654444055
12838862 33 18338782477222431777
13533116 47 13758088354793647788
13811026 1 18410859862475434627
13885169 127 18410575063763645125
14118638 360 15769506330369663094
14251764 18 18410856568229724199
14251764 46 18410575084663098403
14856354 85 15985100830456979013
14933364 13 18410573985151477120
15183329 4 18410575071778177440
15439362 3 17973728271026794492
15461852 350 17275097354376121327
15840311 113 18259989297625460676
15849732 13 18409730668328169853
16087824 20 18337671911473293669
16120349 18 18335137626890452908
16989713 51 17273686758262731503
18335252 98 18341898489023428759
18608769 82 18410571799113317829
18681886 176 18412820313282439697
19611394 137 18042418000797229467
21267235 1 18410577283686360452
21315763 28 18410573989446658789
21360443 120 17676205753897791179
21792934 111 18272360972253902856
22224240 67 17240202135937869138
232437 2 18410575084663364738
23559900 14 18341606078970468017
249057 3 18410574006626287724
3004659 81 18260546727369402544
335352 9 18410574006626287941
34797466 226 17274827974106800860
350125 39 18411417310575613353
4073 2 18041284369258638002
4325135 7 18410856563934757077
4339292 15 16128080262081996855
44802255 64 16588008127696846139
4625314 4 18410574002336601734
5758199 1 17894348873627598763
6009941 240 17603872225817783963
6081469 158 17676483926513467126
6691757 9 16343709872203435607
67123 10 18410856568229724183
99344 41 18411982446947112775

> <PUBCHEM_SHAPE_MULTIPOLES>
617.39
28.62
1.78
0.62
0
0
0
0
0.02
0
0
0
0
0

> <PUBCHEM_SHAPE_SELFOVERLAP>
1455.738

> <PUBCHEM_SHAPE_VOLUME>
277.9

> <PUBCHEM_COORDINATE_TYPE>
2
5
10

$$$$
