5311102
  -OEChem-07152410593D

 83 84  0     1  0  0  0  0  0999 V2000
   -2.6281   -3.0310    1.7917 O   0  0  0  0  0  0  0  0  0  0  0  0
   -1.6023   -1.7520   -1.4838 O   0  0  0  0  0  0  0  0  0  0  0  0
   -4.9284    1.6896    1.1015 O   0  0  0  0  0  0  0  0  0  0  0  0
    4.3669   -1.6817   -0.4804 O   0  0  0  0  0  0  0  0  0  0  0  0
    4.5735   -0.2071    1.8224 O   0  0  0  0  0  0  0  0  0  0  0  0
   -2.1533    1.7745    1.4091 O   0  0  0  0  0  0  0  0  0  0  0  0
   -2.1334    1.4346   -3.8950 O   0  0  0  0  0  0  0  0  0  0  0  0
    3.2482   -2.6004   -2.2705 O   0  0  0  0  0  0  0  0  0  0  0  0
    1.8516    2.8450   -1.3674 O   0  0  0  0  0  0  0  0  0  0  0  0
    0.1221    2.5162    0.1737 N   0  0  0  0  0  0  0  0  0  0  0  0
    4.9092   -3.7517   -1.1737 N   0  0  0  0  0  0  0  0  0  0  0  0
   -2.7496   -2.7238    0.4079 C   0  0  1  0  0  0  0  0  0  0  0  0
   -4.0370   -1.9102    0.1531 C   0  0  0  0  0  0  0  0  0  0  0  0
   -4.2230   -0.6710    1.0719 C   0  0  1  0  0  0  0  0  0  0  0  0
   -1.4735   -2.0130   -0.0853 C   0  0  1  0  0  0  0  0  0  0  0  0
   -0.1545   -2.7828    0.1945 C   0  0  2  0  0  0  0  0  0  0  0  0
   -4.5141    0.6187    0.2508 C   0  0  2  0  0  0  0  0  0  0  0  0
   -5.3430   -0.9491    2.0876 C   0  0  0  0  0  0  0  0  0  0  0  0
    1.0367   -1.9293   -0.2035 C   0  0  0  0  0  0  0  0  0  0  0  0
   -0.0639   -4.1240   -0.5392 C   0  0  0  0  0  0  0  0  0  0  0  0
   -3.3185    1.1017   -0.5475 C   0  0  0  0  0  0  0  0  0  0  0  0
    2.1848   -1.7317    0.4770 C   0  0  0  0  0  0  0  0  0  0  0  0
    3.2653   -0.8412   -0.1270 C   0  0  1  0  0  0  0  0  0  0  0  0
   -2.1395    1.6530    0.1857 C   0  0  0  0  0  0  0  0  0  0  0  0
   -3.2976    1.0539   -1.8849 C   0  0  0  0  0  0  0  0  0  0  0  0
   -3.7319   -3.7970    2.2534 C   0  0  0  0  0  0  0  0  0  0  0  0
   -0.5210   -0.9688   -1.9629 C   0  0  0  0  0  0  0  0  0  0  0  0
    3.7309    0.3115    0.7929 C   0  0  2  0  0  0  0  0  0  0  0  0
    2.4995   -2.3942    1.7913 C   0  0  0  0  0  0  0  0  0  0  0  0
   -5.2934    2.8337    0.3468 C   0  0  0  0  0  0  0  0  0  0  0  0
   -0.9281    2.0489   -0.5959 C   0  0  0  0  0  0  0  0  0  0  0  0
   -2.1267    1.4821   -2.6694 C   0  0  0  0  0  0  0  0  0  0  0  0
   -0.9419    1.9608   -1.9302 C   0  0  0  0  0  0  0  0  0  0  0  0
    4.5196    1.3481    0.0313 C   0  0  0  0  0  0  0  0  0  0  0  0
    4.4029    2.6832    0.0988 C   0  0  0  0  0  0  0  0  0  0  0  0
    4.0960   -2.6661   -1.3866 C   0  0  0  0  0  0  0  0  0  0  0  0
    1.3836    2.9269   -0.2362 C   0  0  0  0  0  0  0  0  0  0  0  0
    4.9901    0.8168    2.7116 C   0  0  0  0  0  0  0  0  0  0  0  0
    2.1738    3.5579    0.8798 C   0  0  0  0  0  0  0  0  0  0  0  0
    3.5126    3.4415    0.9449 C   0  0  0  0  0  0  0  0  0  0  0  0
    1.4355    4.4274    1.8617 C   0  0  0  0  0  0  0  0  0  0  0  0
   -2.8520   -3.6605   -0.1562 H   0  0  0  0  0  0  0  0  0  0  0  0
   -4.9194   -2.5582    0.2016 H   0  0  0  0  0  0  0  0  0  0  0  0
   -4.0294   -1.5991   -0.8983 H   0  0  0  0  0  0  0  0  0  0  0  0
   -3.3194   -0.4996    1.6681 H   0  0  0  0  0  0  0  0  0  0  0  0
   -1.4063   -1.0567    0.4488 H   0  0  0  0  0  0  0  0  0  0  0  0
   -0.1177   -2.9818    1.2705 H   0  0  0  0  0  0  0  0  0  0  0  0
   -5.3561    0.3911   -0.4187 H   0  0  0  0  0  0  0  0  0  0  0  0
   -5.6187   -0.0412    2.6345 H   0  0  0  0  0  0  0  0  0  0  0  0
   -5.0325   -1.6554    2.8584 H   0  0  0  0  0  0  0  0  0  0  0  0
   -6.2494   -1.3227    1.6002 H   0  0  0  0  0  0  0  0  0  0  0  0
    1.2620   -1.6905   -1.2193 H   0  0  0  0  0  0  0  0  0  0  0  0
   -0.8536   -4.8060   -0.2091 H   0  0  0  0  0  0  0  0  0  0  0  0
    0.8936   -4.6173   -0.3348 H   0  0  0  0  0  0  0  0  0  0  0  0
   -0.1512   -4.0072   -1.6246 H   0  0  0  0  0  0  0  0  0  0  0  0
    2.8902   -0.3692   -1.0472 H   0  0  0  0  0  0  0  0  0  0  0  0
   -4.1427    0.6695   -2.4470 H   0  0  0  0  0  0  0  0  0  0  0  0
   -3.7039   -3.7947    3.3473 H   0  0  0  0  0  0  0  0  0  0  0  0
   -4.7237   -3.4840    1.9405 H   0  0  0  0  0  0  0  0  0  0  0  0
   -3.5925   -4.8341    1.9287 H   0  0  0  0  0  0  0  0  0  0  0  0
    0.1524   -1.6171   -2.5347 H   0  0  0  0  0  0  0  0  0  0  0  0
   -0.9155   -0.4418   -2.8257 H   0  0  0  0  0  0  0  0  0  0  0  0
   -0.1030   -0.2445   -1.2732 H   0  0  0  0  0  0  0  0  0  0  0  0
    2.8429    0.7576    1.2564 H   0  0  0  0  0  0  0  0  0  0  0  0
    1.8453   -3.2408    2.0129 H   0  0  0  0  0  0  0  0  0  0  0  0
    3.5192   -2.7930    1.7901 H   0  0  0  0  0  0  0  0  0  0  0  0
    2.4083   -1.6745    2.6106 H   0  0  0  0  0  0  0  0  0  0  0  0
   -5.8217    3.5168    1.0190 H   0  0  0  0  0  0  0  0  0  0  0  0
   -4.4201    3.3727   -0.0314 H   0  0  0  0  0  0  0  0  0  0  0  0
   -5.9761    2.5804   -0.4711 H   0  0  0  0  0  0  0  0  0  0  0  0
   -0.1038    2.2519   -2.5508 H   0  0  0  0  0  0  0  0  0  0  0  0
    5.2970    0.9600   -0.6261 H   0  0  0  0  0  0  0  0  0  0  0  0
   -0.0834    2.5556    1.1690 H   0  0  0  0  0  0  0  0  0  0  0  0
    5.1011    3.2865   -0.4774 H   0  0  0  0  0  0  0  0  0  0  0  0
    5.7801    1.4370    2.2790 H   0  0  0  0  0  0  0  0  0  0  0  0
    4.1475    1.4240    3.0572 H   0  0  0  0  0  0  0  0  0  0  0  0
    5.4215    0.3287    3.5914 H   0  0  0  0  0  0  0  0  0  0  0  0
    4.0423    3.9995    1.7164 H   0  0  0  0  0  0  0  0  0  0  0  0
    0.9207    3.8167    2.6103 H   0  0  0  0  0  0  0  0  0  0  0  0
    2.1113    5.1039    2.3966 H   0  0  0  0  0  0  0  0  0  0  0  0
    0.6982    5.0532    1.3478 H   0  0  0  0  0  0  0  0  0  0  0  0
    5.5956   -3.7588   -0.4267 H   0  0  0  0  0  0  0  0  0  0  0  0
    4.8469   -4.5806   -1.7550 H   0  0  0  0  0  0  0  0  0  0  0  0
  1 12  1  0  0  0  0
  1 26  1  0  0  0  0
  2 15  1  0  0  0  0
  2 27  1  0  0  0  0
  3 17  1  0  0  0  0
  3 30  1  0  0  0  0
  4 23  1  0  0  0  0
  4 36  1  0  0  0  0
  5 28  1  0  0  0  0
  5 38  1  0  0  0  0
  6 24  2  0  0  0  0
  7 32  2  0  0  0  0
  8 36  2  0  0  0  0
  9 37  2  0  0  0  0
 10 31  1  0  0  0  0
 10 37  1  0  0  0  0
 10 73  1  0  0  0  0
 11 36  1  0  0  0  0
 11 82  1  0  0  0  0
 11 83  1  0  0  0  0
 12 13  1  0  0  0  0
 12 15  1  0  0  0  0
 12 42  1  0  0  0  0
 13 14  1  0  0  0  0
 13 43  1  0  0  0  0
 13 44  1  0  0  0  0
 14 17  1  0  0  0  0
 14 18  1  0  0  0  0
 14 45  1  0  0  0  0
 15 16  1  0  0  0  0
 15 46  1  0  0  0  0
 16 19  1  0  0  0  0
 16 20  1  0  0  0  0
 16 47  1  0  0  0  0
 17 21  1  0  0  0  0
 17 48  1  0  0  0  0
 18 49  1  0  0  0  0
 18 50  1  0  0  0  0
 18 51  1  0  0  0  0
 19 22  2  0  0  0  0
 19 52  1  0  0  0  0
 20 53  1  0  0  0  0
 20 54  1  0  0  0  0
 20 55  1  0  0  0  0
 21 24  1  0  0  0  0
 21 25  2  0  0  0  0
 22 23  1  0  0  0  0
 22 29  1  0  0  0  0
 23 28  1  0  0  0  0
 23 56  1  0  0  0  0
 24 31  1  0  0  0  0
 25 32  1  0  0  0  0
 25 57  1  0  0  0  0
 26 58  1  0  0  0  0
 26 59  1  0  0  0  0
 26 60  1  0  0  0  0
 27 61  1  0  0  0  0
 27 62  1  0  0  0  0
 27 63  1  0  0  0  0
 28 34  1  0  0  0  0
 28 64  1  0  0  0  0
 29 65  1  0  0  0  0
 29 66  1  0  0  0  0
 29 67  1  0  0  0  0
 30 68  1  0  0  0  0
 30 69  1  0  0  0  0
 30 70  1  0  0  0  0
 31 33  2  0  0  0  0
 32 33  1  0  0  0  0
 33 71  1  0  0  0  0
 34 35  2  0  0  0  0
 34 72  1  0  0  0  0
 35 40  1  0  0  0  0
 35 74  1  0  0  0  0
 37 39  1  0  0  0  0
 38 75  1  0  0  0  0
 38 76  1  0  0  0  0
 38 77  1  0  0  0  0
 39 40  2  0  0  0  0
 39 41  1  0  0  0  0
 40 78  1  0  0  0  0
 41 79  1  0  0  0  0
 41 80  1  0  0  0  0
 41 81  1  0  0  0  0
M  END
> <PUBCHEM_COMPOUND_CID>
5311102

> <PUBCHEM_CONFORMER_RMSD>
1

> <PUBCHEM_CONFORMER_DIVERSEORDER>
1

> <PUBCHEM_MMFF94_PARTIAL_CHARGES>
46
1 -0.56
10 -0.54
11 -0.8
12 0.28
15 0.28
16 0.14
17 0.42
19 -0.29
2 -0.56
21 -0.12
22 -0.28
23 0.42
24 0.54
25 -0.14
26 0.28
27 0.28
28 0.42
29 0.14
3 -0.56
30 0.28
31 0.12
32 0.54
33 -0.14
34 -0.29
35 -0.15
36 0.78
37 0.62
38 0.28
39 -0.12
4 -0.43
40 -0.15
41 0.14
5 -0.56
52 0.15
57 0.15
6 -0.57
7 -0.57
71 0.15
72 0.15
73 0.37
74 0.15
78 0.15
8 -0.57
82 0.37
83 0.37
9 -0.57

> <PUBCHEM_EFFECTIVE_ROTOR_COUNT>
7.8

> <PUBCHEM_PHARMACOPHORE_FEATURES>
11
1 1 acceptor
1 10 donor
1 11 donor
1 2 acceptor
1 3 acceptor
1 5 acceptor
1 6 acceptor
1 7 acceptor
1 8 acceptor
1 9 acceptor
6 21 24 25 31 32 33 rings

> <PUBCHEM_HEAVY_ATOM_COUNT>
41

> <PUBCHEM_ATOM_DEF_STEREO_COUNT>
7

> <PUBCHEM_ATOM_UDEF_STEREO_COUNT>
0

> <PUBCHEM_BOND_DEF_STEREO_COUNT>
3

> <PUBCHEM_BOND_UDEF_STEREO_COUNT>
0

> <PUBCHEM_ISOTOPIC_ATOM_COUNT>
0

> <PUBCHEM_COMPONENT_COUNT>
1

> <PUBCHEM_CACTVS_TAUTO_COUNT>
8

> <PUBCHEM_CONFORMER_ID>
00510A7E00000001

> <PUBCHEM_MMFF94_ENERGY>
179.8944

> <PUBCHEM_FEATURE_SELFOVERLAP>
55.834

> <PUBCHEM_SHAPE_FINGERPRINT>
10032420 55 17531813432914008083
10675989 125 14090199634515073134
10864689 126 18047473318510903785
11135926 11 18341603855116548308
11513181 2 18201446942363613119
11756154 5 18121502354552771454
12156800 1 17756744027412698900
12422481 6 18263359355427868537
12786520 15 17060341795395435540
14725015 67 17904757778535552192
161222 619 18413668019467547310
20764821 26 17982996041192902336
22223350 30 18190768421489963011
3459 110 18189614015552445363
392239 28 18189330337031016075
469060 322 17095520742249586998
5081480 168 17774740666506835350
508706 21 18113887256623102359
5265222 85 17834129906634855620

> <PUBCHEM_SHAPE_MULTIPOLES>
780.97
11
6
2.55
0.47
0.69
0.98
-0.04
-4.62
2.34
-0.8
-0.64
-0.13
3.56

> <PUBCHEM_SHAPE_SELFOVERLAP>
1609.025

> <PUBCHEM_SHAPE_VOLUME>
441.4

> <PUBCHEM_COORDINATE_TYPE>
2
5
10

$$$$
