136001
  -OEChem-04182409553D

 60 72  0     0  0  0  0  0  0999 V2000
   -0.4839   -1.3371    0.0004 C   0  0  0  0  0  0  0  0  0  0  0  0
   -1.3999   -0.2495    0.0004 C   0  0  0  0  0  0  0  0  0  0  0  0
    0.9161   -1.0876    0.0006 C   0  0  0  0  0  0  0  0  0  0  0  0
   -0.9160    1.0876    0.0006 C   0  0  0  0  0  0  0  0  0  0  0  0
    1.3999    0.2495    0.0004 C   0  0  0  0  0  0  0  0  0  0  0  0
    0.4839    1.3372    0.0003 C   0  0  0  0  0  0  0  0  0  0  0  0
   -0.9679   -2.6747   -0.0002 C   0  0  0  0  0  0  0  0  0  0  0  0
   -2.8004   -0.4991    0.0002 C   0  0  0  0  0  0  0  0  0  0  0  0
    1.8324   -2.1756    0.0009 C   0  0  0  0  0  0  0  0  0  0  0  0
   -1.8324    2.1756    0.0009 C   0  0  0  0  0  0  0  0  0  0  0  0
    2.8004    0.4991    0.0002 C   0  0  0  0  0  0  0  0  0  0  0  0
    0.9679    2.6747   -0.0003 C   0  0  0  0  0  0  0  0  0  0  0  0
   -0.0515   -3.7647   -0.0001 C   0  0  0  0  0  0  0  0  0  0  0  0
   -3.7187    0.5893    0.0007 C   0  0  0  0  0  0  0  0  0  0  0  0
   -2.3697   -2.9257   -0.0011 C   0  0  0  0  0  0  0  0  0  0  0  0
   -3.2861   -1.8377   -0.0007 C   0  0  0  0  0  0  0  0  0  0  0  0
    3.2345   -1.9270    0.0010 C   0  0  0  0  0  0  0  0  0  0  0  0
   -1.3489    3.5151    0.0008 C   0  0  0  0  0  0  0  0  0  0  0  0
    1.3490   -3.5151    0.0011 C   0  0  0  0  0  0  0  0  0  0  0  0
   -3.2346    1.9269    0.0012 C   0  0  0  0  0  0  0  0  0  0  0  0
    3.2860    1.8378   -0.0004 C   0  0  0  0  0  0  0  0  0  0  0  0
    2.3697    2.9258   -0.0009 C   0  0  0  0  0  0  0  0  0  0  0  0
    3.7187   -0.5893    0.0003 C   0  0  0  0  0  0  0  0  0  0  0  0
    0.0515    3.7647   -0.0004 C   0  0  0  0  0  0  0  0  0  0  0  0
   -0.5744   -5.0792   -0.0017 C   0  0  0  0  0  0  0  0  0  0  0  0
   -5.1030    0.2975    0.0003 C   0  0  0  0  0  0  0  0  0  0  0  0
   -2.8092   -4.2704   -0.0031 C   0  0  0  0  0  0  0  0  0  0  0  0
   -4.6861   -2.0423   -0.0008 C   0  0  0  0  0  0  0  0  0  0  0  0
    4.1116   -3.0371    0.0017 C   0  0  0  0  0  0  0  0  0  0  0  0
   -2.2938    4.5681    0.0018 C   0  0  0  0  0  0  0  0  0  0  0  0
    2.2938   -4.5681    0.0022 C   0  0  0  0  0  0  0  0  0  0  0  0
   -4.1116    3.0370    0.0020 C   0  0  0  0  0  0  0  0  0  0  0  0
    4.6860    2.0422   -0.0005 C   0  0  0  0  0  0  0  0  0  0  0  0
    2.8092    4.2705   -0.0025 C   0  0  0  0  0  0  0  0  0  0  0  0
    5.1031   -0.2975    0.0000 C   0  0  0  0  0  0  0  0  0  0  0  0
    0.5744    5.0793   -0.0022 C   0  0  0  0  0  0  0  0  0  0  0  0
   -1.9301   -5.3335   -0.0033 C   0  0  0  0  0  0  0  0  0  0  0  0
   -5.5842   -0.9953   -0.0005 C   0  0  0  0  0  0  0  0  0  0  0  0
    3.6540   -4.3385    0.0022 C   0  0  0  0  0  0  0  0  0  0  0  0
   -3.6540    4.3383    0.0023 C   0  0  0  0  0  0  0  0  0  0  0  0
    5.5842    0.9953   -0.0006 C   0  0  0  0  0  0  0  0  0  0  0  0
    1.9302    5.3336   -0.0031 C   0  0  0  0  0  0  0  0  0  0  0  0
    0.0613   -5.9589   -0.0020 H   0  0  0  0  0  0  0  0  0  0  0  0
   -5.8619    1.0735    0.0005 H   0  0  0  0  0  0  0  0  0  0  0  0
   -3.8607   -4.5396   -0.0046 H   0  0  0  0  0  0  0  0  0  0  0  0
   -5.1301   -3.0327   -0.0012 H   0  0  0  0  0  0  0  0  0  0  0  0
    5.1913   -2.9264    0.0019 H   0  0  0  0  0  0  0  0  0  0  0  0
   -2.0011    5.6133    0.0022 H   0  0  0  0  0  0  0  0  0  0  0  0
    2.0011   -5.6133    0.0028 H   0  0  0  0  0  0  0  0  0  0  0  0
   -5.1914    2.9263    0.0025 H   0  0  0  0  0  0  0  0  0  0  0  0
    5.1300    3.0326   -0.0008 H   0  0  0  0  0  0  0  0  0  0  0  0
    3.8607    4.5397   -0.0033 H   0  0  0  0  0  0  0  0  0  0  0  0
    5.8619   -1.0736    0.0001 H   0  0  0  0  0  0  0  0  0  0  0  0
   -0.0614    5.9590   -0.0030 H   0  0  0  0  0  0  0  0  0  0  0  0
   -2.2995   -6.3541   -0.0048 H   0  0  0  0  0  0  0  0  0  0  0  0
   -6.6528   -1.1857   -0.0007 H   0  0  0  0  0  0  0  0  0  0  0  0
    4.3532   -5.1686    0.0029 H   0  0  0  0  0  0  0  0  0  0  0  0
   -4.3533    5.1685    0.0030 H   0  0  0  0  0  0  0  0  0  0  0  0
    6.6528    1.1858   -0.0008 H   0  0  0  0  0  0  0  0  0  0  0  0
    2.2995    6.3543   -0.0045 H   0  0  0  0  0  0  0  0  0  0  0  0
  1  2  1  0  0  0  0
  1  3  2  0  0  0  0
  1  7  1  0  0  0  0
  2  4  2  0  0  0  0
  2  8  1  0  0  0  0
  3  5  1  0  0  0  0
  3  9  1  0  0  0  0
  4  6  1  0  0  0  0
  4 10  1  0  0  0  0
  5  6  1  0  0  0  0
  5 11  2  0  0  0  0
  6 12  2  0  0  0  0
  7 13  2  0  0  0  0
  7 15  1  0  0  0  0
  8 14  2  0  0  0  0
  8 16  1  0  0  0  0
  9 17  2  0  0  0  0
  9 19  1  0  0  0  0
 10 18  2  0  0  0  0
 10 20  1  0  0  0  0
 11 21  1  0  0  0  0
 11 23  1  0  0  0  0
 12 22  1  0  0  0  0
 12 24  1  0  0  0  0
 13 19  1  0  0  0  0
 13 25  1  0  0  0  0
 14 20  1  0  0  0  0
 14 26  1  0  0  0  0
 15 16  1  0  0  0  0
 15 27  2  0  0  0  0
 16 28  2  0  0  0  0
 17 23  1  0  0  0  0
 17 29  1  0  0  0  0
 18 24  1  0  0  0  0
 18 30  1  0  0  0  0
 19 31  2  0  0  0  0
 20 32  2  0  0  0  0
 21 22  2  0  0  0  0
 21 33  1  0  0  0  0
 22 34  1  0  0  0  0
 23 35  2  0  0  0  0
 24 36  2  0  0  0  0
 25 37  2  0  0  0  0
 25 43  1  0  0  0  0
 26 38  2  0  0  0  0
 26 44  1  0  0  0  0
 27 37  1  0  0  0  0
 27 45  1  0  0  0  0
 28 38  1  0  0  0  0
 28 46  1  0  0  0  0
 29 39  2  0  0  0  0
 29 47  1  0  0  0  0
 30 40  2  0  0  0  0
 30 48  1  0  0  0  0
 31 39  1  0  0  0  0
 31 49  1  0  0  0  0
 32 40  1  0  0  0  0
 32 50  1  0  0  0  0
 33 41  2  0  0  0  0
 33 51  1  0  0  0  0
 34 42  2  0  0  0  0
 34 52  1  0  0  0  0
 35 41  1  0  0  0  0
 35 53  1  0  0  0  0
 36 42  1  0  0  0  0
 36 54  1  0  0  0  0
 37 55  1  0  0  0  0
 38 56  1  0  0  0  0
 39 57  1  0  0  0  0
 40 58  1  0  0  0  0
 41 59  1  0  0  0  0
 42 60  1  0  0  0  0
M  END
> <PUBCHEM_COMPOUND_CID>
136001

> <PUBCHEM_CONFORMER_RMSD>
0.8

> <PUBCHEM_CONFORMER_DIVERSEORDER>
1

> <PUBCHEM_MMFF94_PARTIAL_CHARGES>
36
25 -0.15
26 -0.15
27 -0.15
28 -0.15
29 -0.15
30 -0.15
31 -0.15
32 -0.15
33 -0.15
34 -0.15
35 -0.15
36 -0.15
37 -0.15
38 -0.15
39 -0.15
40 -0.15
41 -0.15
42 -0.15
43 0.15
44 0.15
45 0.15
46 0.15
47 0.15
48 0.15
49 0.15
50 0.15
51 0.15
52 0.15
53 0.15
54 0.15
55 0.15
56 0.15
57 0.15
58 0.15
59 0.15
60 0.15

> <PUBCHEM_EFFECTIVE_ROTOR_COUNT>
0

> <PUBCHEM_PHARMACOPHORE_FEATURES>
13
6 1 2 3 4 5 6 rings
6 1 2 7 8 15 16 rings
6 1 3 7 9 13 19 rings
6 10 18 20 30 32 40 rings
6 11 21 23 33 35 41 rings
6 12 22 24 34 36 42 rings
6 2 4 8 10 14 20 rings
6 3 5 9 11 17 23 rings
6 4 6 10 12 18 24 rings
6 5 6 11 12 21 22 rings
6 7 13 15 25 27 37 rings
6 8 14 16 26 28 38 rings
6 9 17 19 29 31 39 rings

> <PUBCHEM_HEAVY_ATOM_COUNT>
42

> <PUBCHEM_ATOM_DEF_STEREO_COUNT>
0

> <PUBCHEM_ATOM_UDEF_STEREO_COUNT>
0

> <PUBCHEM_BOND_DEF_STEREO_COUNT>
0

> <PUBCHEM_BOND_UDEF_STEREO_COUNT>
0

> <PUBCHEM_ISOTOPIC_ATOM_COUNT>
0

> <PUBCHEM_COMPONENT_COUNT>
1

> <PUBCHEM_CACTVS_TAUTO_COUNT>
1

> <PUBCHEM_CONFORMER_ID>
0002134100000001

> <PUBCHEM_MMFF94_ENERGY>
205.5823

> <PUBCHEM_FEATURE_SELFOVERLAP>
66.559

> <PUBCHEM_SHAPE_FINGERPRINT>
10290309 65 17904200326130278804
10439779 11 18411408532273948832
10675989 125 18265886037960429415
1100329 8 18266741474643148826
11136131 41 17614547569201962112
11513181 2 18201153243820229463
13140716 1 18050287260502327389
138480 1 17041761985156349953
140371 6 18410574032396091396
144659 178 17975981186676687444
14790565 3 18266743480519833859
15320467 1 18410575131907719172
16112460 7 17620777393093806947
19591789 44 18266741277101059426
20764821 26 17977664534678167301
20775438 99 17326846783454652877
22311459 1 18410574036954848268
23559900 14 18196366137764649136
3882209 13 17906689822187274538
463206 1 18192715767829410595
9961470 85 18053935440358433129

> <PUBCHEM_SHAPE_MULTIPOLES>
864.34
9.39
9.39
0.62
0
0
0
0
0
0
0
0
0
-0.01

> <PUBCHEM_SHAPE_SELFOVERLAP>
2156.446

> <PUBCHEM_SHAPE_VOLUME>
354.6

> <PUBCHEM_COORDINATE_TYPE>
2
5
10

$$$$
