145996610
  -OEChem-05022417563D

 42 43  0     1  0  0  0  0  0999 V2000
   -0.4262    1.2372    1.0608 O   0  0  0  0  0  0  0  0  0  0  0  0
   -0.4126    4.2109    0.4188 O   0  0  0  0  0  0  0  0  0  0  0  0
    1.7373    3.2421   -0.9712 O   0  0  0  0  0  0  0  0  0  0  0  0
   -2.8860    0.1413    0.2831 O   0  0  0  0  0  0  0  0  0  0  0  0
    3.6639    1.2012    0.7703 O   0  0  0  0  0  0  0  0  0  0  0  0
   -3.8028   -0.8496   -1.5869 O   0  0  0  0  0  0  0  0  0  0  0  0
    4.8921   -3.1905   -0.2251 O   0  0  0  0  0  0  0  0  0  0  0  0
    1.5850    0.3229    0.2877 N   0  0  0  0  0  0  0  0  0  0  0  0
    3.6099   -0.9856    0.1645 N   0  0  0  0  0  0  0  0  0  0  0  0
    3.5476   -3.2256   -0.4574 N   0  0  0  0  0  0  0  0  0  0  0  0
   -0.6396    3.0782   -0.4193 C   0  0  1  0  0  0  0  0  0  0  0  0
    0.6620    2.3617   -0.7205 C   0  0  2  0  0  0  0  0  0  0  0  0
   -1.4152    2.0224    0.3597 C   0  0  1  0  0  0  0  0  0  0  0  0
    0.8768    1.5450    0.5415 C   0  0  1  0  0  0  0  0  0  0  0  0
   -2.2151    1.0843   -0.5342 C   0  0  0  0  0  0  0  0  0  0  0  0
    0.8651   -0.7957   -0.1045 C   0  0  0  0  0  0  0  0  0  0  0  0
    2.9934    0.2264    0.4251 C   0  0  0  0  0  0  0  0  0  0  0  0
   -3.6579   -0.7846   -0.3731 C   0  0  0  0  0  0  0  0  0  0  0  0
    1.4391   -1.9697   -0.3605 C   0  0  0  0  0  0  0  0  0  0  0  0
   -4.2987   -1.7293    0.6283 C   0  0  0  0  0  0  0  0  0  0  0  0
    2.9157   -2.0303   -0.2038 C   0  0  0  0  0  0  0  0  0  0  0  0
   -5.6622   -2.2016    0.1307 C   0  0  0  0  0  0  0  0  0  0  0  0
   -3.3717   -2.9112    0.8859 C   0  0  0  0  0  0  0  0  0  0  0  0
   -1.1474    3.4339   -1.3208 H   0  0  0  0  0  0  0  0  0  0  0  0
    0.5373    1.7125   -1.5957 H   0  0  0  0  0  0  0  0  0  0  0  0
   -2.0684    2.4606    1.1225 H   0  0  0  0  0  0  0  0  0  0  0  0
    1.4157    2.1248    1.3005 H   0  0  0  0  0  0  0  0  0  0  0  0
   -1.5772    0.5613   -1.2532 H   0  0  0  0  0  0  0  0  0  0  0  0
   -2.9592    1.6653   -1.0925 H   0  0  0  0  0  0  0  0  0  0  0  0
   -1.2802    4.6012    0.6203 H   0  0  0  0  0  0  0  0  0  0  0  0
    1.4816    3.8094   -1.7183 H   0  0  0  0  0  0  0  0  0  0  0  0
   -0.2061   -0.7169   -0.2036 H   0  0  0  0  0  0  0  0  0  0  0  0
    0.8837   -2.8468   -0.6648 H   0  0  0  0  0  0  0  0  0  0  0  0
   -4.4598   -1.1785    1.5634 H   0  0  0  0  0  0  0  0  0  0  0  0
   -5.5729   -2.7823   -0.7941 H   0  0  0  0  0  0  0  0  0  0  0  0
   -6.1534   -2.8307    0.8803 H   0  0  0  0  0  0  0  0  0  0  0  0
   -6.3161   -1.3478   -0.0777 H   0  0  0  0  0  0  0  0  0  0  0  0
   -2.4008   -2.5696    1.2614 H   0  0  0  0  0  0  0  0  0  0  0  0
   -3.8017   -3.5918    1.6278 H   0  0  0  0  0  0  0  0  0  0  0  0
   -3.1857   -3.4783   -0.0329 H   0  0  0  0  0  0  0  0  0  0  0  0
    3.1055   -4.1073   -0.6889 H   0  0  0  0  0  0  0  0  0  0  0  0
    5.2423   -3.6737   -0.9925 H   0  0  0  0  0  0  0  0  0  0  0  0
  1 13  1  0  0  0  0
  1 14  1  0  0  0  0
  2 11  1  0  0  0  0
  2 30  1  0  0  0  0
  3 12  1  0  0  0  0
  3 31  1  0  0  0  0
  4 15  1  0  0  0  0
  4 18  1  0  0  0  0
  5 17  2  0  0  0  0
  6 18  2  0  0  0  0
  7 10  1  0  0  0  0
  7 42  1  0  0  0  0
  8 14  1  0  0  0  0
  8 16  1  0  0  0  0
  8 17  1  0  0  0  0
  9 17  1  0  0  0  0
  9 21  2  0  0  0  0
 10 21  1  0  0  0  0
 10 41  1  0  0  0  0
 11 12  1  0  0  0  0
 11 13  1  0  0  0  0
 11 24  1  0  0  0  0
 12 14  1  0  0  0  0
 12 25  1  0  0  0  0
 13 15  1  0  0  0  0
 13 26  1  0  0  0  0
 14 27  1  0  0  0  0
 15 28  1  0  0  0  0
 15 29  1  0  0  0  0
 16 19  2  0  0  0  0
 16 32  1  0  0  0  0
 18 20  1  0  0  0  0
 19 21  1  0  0  0  0
 19 33  1  0  0  0  0
 20 22  1  0  0  0  0
 20 23  1  0  0  0  0
 20 34  1  0  0  0  0
 22 35  1  0  0  0  0
 22 36  1  0  0  0  0
 22 37  1  0  0  0  0
 23 38  1  0  0  0  0
 23 39  1  0  0  0  0
 23 40  1  0  0  0  0
M  END
> <PUBCHEM_COMPOUND_CID>
145996610

> <PUBCHEM_CONFORMER_RMSD>
0.8

> <PUBCHEM_CONFORMER_DIVERSEORDER>
1
34
31
99
114
66
71
55
43
95
109
33
61
57
23
44
110
106
107
102
70
85
112
59
69
42
90
45
38
108
15
103
64
46
79
93
86
54
19
83
68
26
30
11
41
67
89
8
10
94
82
48
81
73
88
51
35
77
29
13
47
101
105
17
28
4
14
16
97
78
87
20
50
100
9
56
63
12
113
72
21
60
52
115
37
2
75
58
84
7
65
80
6
32
76
92
18
53
111
104
91
62
25
22
74
5
39
24
40
96
3
49
36
27
98

> <PUBCHEM_MMFF94_PARTIAL_CHARGES>
27
1 -0.56
10 -0.47
11 0.28
12 0.28
13 0.28
14 0.58
15 0.28
16 -0.04
17 0.84
18 0.66
19 -0.14
2 -0.68
20 0.06
21 0.49
3 -0.68
30 0.4
31 0.4
32 0.15
33 0.15
4 -0.43
41 0.4
42 0.4
5 -0.57
6 -0.57
7 -0.38
8 -0.47
9 -0.66

> <PUBCHEM_EFFECTIVE_ROTOR_COUNT>
7

> <PUBCHEM_PHARMACOPHORE_FEATURES>
12
1 1 acceptor
1 10 donor
1 2 acceptor
1 2 donor
1 3 acceptor
1 3 donor
1 5 acceptor
1 6 acceptor
1 9 donor
3 20 22 23 hydrophobe
5 1 11 12 13 14 rings
6 8 9 16 17 19 21 rings

> <PUBCHEM_HEAVY_ATOM_COUNT>
23

> <PUBCHEM_ATOM_DEF_STEREO_COUNT>
4

> <PUBCHEM_ATOM_UDEF_STEREO_COUNT>
0

> <PUBCHEM_BOND_DEF_STEREO_COUNT>
0

> <PUBCHEM_BOND_UDEF_STEREO_COUNT>
0

> <PUBCHEM_ISOTOPIC_ATOM_COUNT>
0

> <PUBCHEM_COMPONENT_COUNT>
1

> <PUBCHEM_CACTVS_TAUTO_COUNT>
-1

> <PUBCHEM_CONFORMER_ID>
08B3BB4200000001

> <PUBCHEM_MMFF94_ENERGY>
61.2935

> <PUBCHEM_FEATURE_SELFOVERLAP>
60.955

> <PUBCHEM_SHAPE_FINGERPRINT>
10411042 1 18410858728604282866
10616163 171 18053100618864073678
12107183 9 18269852964861299219
12363563 72 18409172099579435307
12403259 226 18268144263208524914
12506688 2 18339643438114367513
12553582 1 18410583881046329425
13140716 1 18270402668085805977
13402501 40 18116994592869911571
13533116 47 18195531622416429923
13544653 18 18343577443357735255
13911987 19 17756452678359695268
14790565 3 17689720087638161228
14863182 85 18193837278522893396
14866123 147 18051976914260019233
15352361 1 18410573981184077195
15422964 175 18410849984166367125
15927050 60 17114665671200338748
17492 89 18411136917967662515
17859628 70 18049730912578700643
19141452 34 18053106124975269465
19591789 44 17256816018526179925
20645477 70 18046054124367988307
20681677 274 18338793391198814586
20775530 9 18411417271942143139
21033650 10 16805880663515971525
21197605 99 17326340321185596619
21279426 13 18335410233165522095
21421861 104 18126032527137040689
21452121 199 18408597080430276433
221490 88 18341610352995371770
22849339 104 17620492215591120814
23379529 103 18270408174435203598
23466295 7 18051986822101204975
23559900 14 18196921185527190368
255183 313 17771321344495410850
3421961 26 18340206405358304513
3737641 26 18342746212620027046
392239 28 17345169285874373128
4280585 95 18190170205470221546
46194498 28 17677326259820770045
5104073 3 18129092334621164058
5309563 4 18411982442752677559
613672 6 18337371786814536875
9709674 26 18410569557050744563

> <PUBCHEM_SHAPE_MULTIPOLES>
417.3
8.99
4.86
0.93
6.72
1.53
0.09
-10.74
-0.1
-2.63
0.29
0.37
0.1
0.77

> <PUBCHEM_SHAPE_SELFOVERLAP>
866.212

> <PUBCHEM_SHAPE_VOLUME>
237.3

> <PUBCHEM_COORDINATE_TYPE>
2
5
10

$$$$
