67818
  -OEChem-06272511503D

 23 22  0     0  0  0  0  0  0999 V2000
   -0.0926   -2.3914   -0.1835 F   0  0  0  0  0  0  0  0  0  0  0  0
   -1.1988   -1.1415   -1.5778 F   0  0  0  0  0  0  0  0  0  0  0  0
    1.4076   -0.8943   -1.7906 F   0  0  0  0  0  0  0  0  0  0  0  0
    0.4566    0.9460   -1.1431 F   0  0  0  0  0  0  0  0  0  0  0  0
   -0.7281   -0.7839    1.8879 F   0  0  0  0  0  0  0  0  0  0  0  0
   -2.4052   -1.5683    0.7535 F   0  0  0  0  0  0  0  0  0  0  0  0
    1.2370    0.3761    1.4937 F   0  0  0  0  0  0  0  0  0  0  0  0
    2.2072   -1.4373    0.7746 F   0  0  0  0  0  0  0  0  0  0  0  0
   -0.9764    1.6440    0.5772 F   0  0  0  0  0  0  0  0  0  0  0  0
   -2.7303    1.0007    1.6913 F   0  0  0  0  0  0  0  0  0  0  0  0
    2.7125    1.8816   -0.2887 F   0  0  0  0  0  0  0  0  0  0  0  0
    3.9071    0.6682    1.0763 F   0  0  0  0  0  0  0  0  0  0  0  0
    3.6774    0.0631   -1.0062 F   0  0  0  0  0  0  0  0  0  0  0  0
   -4.1034    0.4833   -0.4584 O   0  0  0  0  0  0  0  0  0  0  0  0
   -2.3757    1.2184   -1.7409 O   0  0  0  0  0  0  0  0  0  0  0  0
   -0.4623   -1.1010   -0.4296 C   0  0  0  0  0  0  0  0  0  0  0  0
    0.7973   -0.2993   -0.7238 C   0  0  0  0  0  0  0  0  0  0  0  0
   -1.3810   -0.6660    0.7034 C   0  0  0  0  0  0  0  0  0  0  0  0
    1.8112   -0.1925    0.4046 C   0  0  0  0  0  0  0  0  0  0  0  0
   -1.9819    0.7281    0.5919 C   0  0  0  0  0  0  0  0  0  0  0  0
    3.0355    0.6149    0.0469 C   0  0  0  0  0  0  0  0  0  0  0  0
   -2.8137    0.8512   -0.6588 C   0  0  0  0  0  0  0  0  0  0  0  0
   -4.6363    0.5541   -1.2790 H   0  0  0  0  0  0  0  0  0  0  0  0
  1 16  1  0  0  0  0
  2 16  1  0  0  0  0
  3 17  1  0  0  0  0
  4 17  1  0  0  0  0
  5 18  1  0  0  0  0
  6 18  1  0  0  0  0
  7 19  1  0  0  0  0
  8 19  1  0  0  0  0
  9 20  1  0  0  0  0
 10 20  1  0  0  0  0
 11 21  1  0  0  0  0
 12 21  1  0  0  0  0
 13 21  1  0  0  0  0
 14 22  1  0  0  0  0
 14 23  1  0  0  0  0
 15 22  2  0  0  0  0
 16 17  1  0  0  0  0
 16 18  1  0  0  0  0
 17 19  1  0  0  0  0
 18 20  1  0  0  0  0
 19 21  1  0  0  0  0
 20 22  1  0  0  0  0
M  END
> <PUBCHEM_COMPOUND_CID>
67818

> <PUBCHEM_CONFORMER_RMSD>
0.8

> <PUBCHEM_CONFORMER_DIVERSEORDER>
1
50
14
37
2
45
25
48
41
44
16
19
28
4
32
17
49
3
34
47
7
43
39
18
12
5
22
38
42
9
8
46
40
10
6
33
23
36
30
24
21
31
26
35
29
20
11
27
13
15

> <PUBCHEM_MMFF94_PARTIAL_CHARGES>
23
1 -0.34
10 -0.34
11 -0.34
12 -0.34
13 -0.34
14 -0.65
15 -0.57
16 0.68
17 0.68
18 0.68
19 0.68
2 -0.34
20 0.74
21 1.02
22 0.66
23 0.5
3 -0.34
4 -0.34
5 -0.34
6 -0.34
7 -0.34
8 -0.34
9 -0.34

> <PUBCHEM_EFFECTIVE_ROTOR_COUNT>
6

> <PUBCHEM_PHARMACOPHORE_FEATURES>
3
1 14 acceptor
1 15 acceptor
3 14 15 22 anion

> <PUBCHEM_HEAVY_ATOM_COUNT>
22

> <PUBCHEM_ATOM_DEF_STEREO_COUNT>
0

> <PUBCHEM_ATOM_UDEF_STEREO_COUNT>
0

> <PUBCHEM_BOND_DEF_STEREO_COUNT>
0

> <PUBCHEM_BOND_UDEF_STEREO_COUNT>
0

> <PUBCHEM_ISOTOPIC_ATOM_COUNT>
0

> <PUBCHEM_COMPONENT_COUNT>
1

> <PUBCHEM_CACTVS_TAUTO_COUNT>
1

> <PUBCHEM_CONFORMER_ID>
000108EA00000001

> <PUBCHEM_MMFF94_ENERGY>
15.9472

> <PUBCHEM_FEATURE_SELFOVERLAP>
15.28

> <PUBCHEM_SHAPE_FINGERPRINT>
10062212 137 16629683912163940478
10863032 1 18334009488777829491
10948715 1 18260258642601397581
12138202 97 18271800246217795311
12251169 10 14634875227708496149
12382932 28 16225767402156787932
12423570 1 13846460828396966215
12491281 212 18335706026682222720
13024252 1 16153702154814095243
13296909 8 17603583075417743683
13299463 15 15841549660958188693
13571099 52 17202194114840842161
13581323 91 17530971284606621553
13764800 53 18342181089312823371
144361 1 16271918324722125043
15061688 2 18189601779322812677
15309172 13 18410017628099501291
15775835 57 18040715853069343789
15852999 172 18260827060227729607
16945 1 18194691353959300195
18186145 218 18271531896534391076
19868273 325 17987228013844414325
20361792 2 8214136352564620419
23236772 104 17241325909709000610
23402539 116 18060125553304054981
23419403 2 16053202548618788699
23557571 272 18270130131173785207
23559900 14 18410853244595106210
2748010 2 18340225027957075079
296302 2 18272647944192496881
3286 77 17131254775641660952
69090 78 18260257551938147759

> <PUBCHEM_SHAPE_MULTIPOLES>
346.45
5.43
1.64
1.54
1.31
0.33
0.01
-1.96
-0.17
-0.17
0.07
-0.29
0.01
0.22

> <PUBCHEM_SHAPE_SELFOVERLAP>
747.551

> <PUBCHEM_SHAPE_VOLUME>
186.7

> <PUBCHEM_COORDINATE_TYPE>
2
5
10

$$$$
