67542
  -OEChem-06272512023D

 20 19  0     0  0  0  0  0  0999 V2000
    0.9399   -0.1644   -2.1131 F   0  0  0  0  0  0  0  0  0  0  0  0
   -0.3930   -1.5971   -1.1699 F   0  0  0  0  0  0  0  0  0  0  0  0
   -0.0201    1.8564   -0.6133 F   0  0  0  0  0  0  0  0  0  0  0  0
   -1.4910    0.7793   -1.7870 F   0  0  0  0  0  0  0  0  0  0  0  0
    2.1058   -1.7949   -0.3548 F   0  0  0  0  0  0  0  0  0  0  0  0
    0.7726   -1.1893    1.2483 F   0  0  0  0  0  0  0  0  0  0  0  0
   -0.8337    0.6020    1.6672 F   0  0  0  0  0  0  0  0  0  0  0  0
   -2.3624    1.6970    0.5886 F   0  0  0  0  0  0  0  0  0  0  0  0
    1.6509    1.4471    0.9275 F   0  0  0  0  0  0  0  0  0  0  0  0
    3.2265    0.0013    1.3656 F   0  0  0  0  0  0  0  0  0  0  0  0
    2.9860    0.7653   -0.6562 F   0  0  0  0  0  0  0  0  0  0  0  0
   -3.6535   -0.4344   -0.0973 O   0  0  0  0  0  0  0  0  0  0  0  0
   -2.1463   -1.7361    0.9987 O   0  0  0  0  0  0  0  0  0  0  0  0
    0.3014   -0.4468   -0.9399 C   0  0  0  0  0  0  0  0  0  0  0  0
   -0.6947    0.6761   -0.6830 C   0  0  0  0  0  0  0  0  0  0  0  0
    1.3610   -0.7493    0.1080 C   0  0  0  0  0  0  0  0  0  0  0  0
   -1.5932    0.5713    0.5404 C   0  0  0  0  0  0  0  0  0  0  0  0
    2.3111    0.3720    0.4478 C   0  0  0  0  0  0  0  0  0  0  0  0
   -2.4676   -0.6556    0.5224 C   0  0  0  0  0  0  0  0  0  0  0  0
   -4.2147   -1.2389   -0.1119 H   0  0  0  0  0  0  0  0  0  0  0  0
  1 14  1  0  0  0  0
  2 14  1  0  0  0  0
  3 15  1  0  0  0  0
  4 15  1  0  0  0  0
  5 16  1  0  0  0  0
  6 16  1  0  0  0  0
  7 17  1  0  0  0  0
  8 17  1  0  0  0  0
  9 18  1  0  0  0  0
 10 18  1  0  0  0  0
 11 18  1  0  0  0  0
 12 19  1  0  0  0  0
 12 20  1  0  0  0  0
 13 19  2  0  0  0  0
 14 15  1  0  0  0  0
 14 16  1  0  0  0  0
 15 17  1  0  0  0  0
 16 18  1  0  0  0  0
 17 19  1  0  0  0  0
M  END
> <PUBCHEM_COMPOUND_CID>
67542

> <PUBCHEM_CONFORMER_RMSD>
0.6

> <PUBCHEM_CONFORMER_DIVERSEORDER>
1
21
15
4
11
20
12
5
19
13
17
3
18
16
7
9
2
10
6
14
8

> <PUBCHEM_MMFF94_PARTIAL_CHARGES>
20
1 -0.34
10 -0.34
11 -0.34
12 -0.65
13 -0.57
14 0.68
15 0.68
16 0.68
17 0.74
18 1.02
19 0.66
2 -0.34
20 0.5
3 -0.34
4 -0.34
5 -0.34
6 -0.34
7 -0.34
8 -0.34
9 -0.34

> <PUBCHEM_EFFECTIVE_ROTOR_COUNT>
5

> <PUBCHEM_PHARMACOPHORE_FEATURES>
3
1 12 acceptor
1 13 acceptor
3 12 13 19 anion

> <PUBCHEM_HEAVY_ATOM_COUNT>
19

> <PUBCHEM_ATOM_DEF_STEREO_COUNT>
0

> <PUBCHEM_ATOM_UDEF_STEREO_COUNT>
0

> <PUBCHEM_BOND_DEF_STEREO_COUNT>
0

> <PUBCHEM_BOND_UDEF_STEREO_COUNT>
0

> <PUBCHEM_ISOTOPIC_ATOM_COUNT>
0

> <PUBCHEM_COMPONENT_COUNT>
1

> <PUBCHEM_CACTVS_TAUTO_COUNT>
1

> <PUBCHEM_CONFORMER_ID>
000107D600000001

> <PUBCHEM_MMFF94_ENERGY>
11.4384

> <PUBCHEM_FEATURE_SELFOVERLAP>
15.281

> <PUBCHEM_SHAPE_FINGERPRINT>
10863032 1 18201159836673512689
11132069 177 18188209930687648224
12138202 97 17169524373231773005
12423570 1 12255040729527171213
12654903 92 9151176441365468427
12808571 1 18200612383321109652
13024252 1 16009018454422445961
13027679 85 17256532915741579051
15775835 57 18335711528466737696
16945 1 18129656521076389538
20525323 117 18408037416369078553
21501502 16 18269282270068986177
23419403 2 16260042684229850892
2748010 2 18059019362838609852
296302 2 18040715909099000077
3286 77 18336535097325837416
369184 2 17458054954517536905
430814 3 15051740789034597835
5084963 1 18261401009386505342
528886 8 10952055549894008864

> <PUBCHEM_SHAPE_MULTIPOLES>
299.26
4.16
1.6
1.5
0.18
0.08
-0.32
0.22
0.97
0.22
0.05
-0.19
-0.05
0.18

> <PUBCHEM_SHAPE_SELFOVERLAP>
639.644

> <PUBCHEM_SHAPE_VOLUME>
163.4

> <PUBCHEM_COORDINATE_TYPE>
2
5
10

$$$$
