9555
  -OEChem-06272512223D

 32 31  0     0  0  0  0  0  0999 V2000
   -0.7798    0.5481    1.3103 F   0  0  0  0  0  0  0  0  0  0  0  0
   -0.3014   -1.4563    1.9943 F   0  0  0  0  0  0  0  0  0  0  0  0
    0.6236   -2.1322   -0.4929 F   0  0  0  0  0  0  0  0  0  0  0  0
    0.1281   -0.1508   -1.2505 F   0  0  0  0  0  0  0  0  0  0  0  0
   -1.8986   -2.5939    0.1937 F   0  0  0  0  0  0  0  0  0  0  0  0
   -2.8665   -1.1710    1.5146 F   0  0  0  0  0  0  0  0  0  0  0  0
    2.1574   -0.9759    1.5004 F   0  0  0  0  0  0  0  0  0  0  0  0
    1.6327    1.0011    0.7508 F   0  0  0  0  0  0  0  0  0  0  0  0
   -3.8645   -1.3108   -0.9726 F   0  0  0  0  0  0  0  0  0  0  0  0
   -1.9378   -0.8604   -1.8609 F   0  0  0  0  0  0  0  0  0  0  0  0
    2.5684    0.2572   -1.7762 F   0  0  0  0  0  0  0  0  0  0  0  0
    3.0946   -1.6985   -0.9808 F   0  0  0  0  0  0  0  0  0  0  0  0
   -1.8903    1.5859   -0.6630 F   0  0  0  0  0  0  0  0  0  0  0  0
   -3.6167    1.1738   -1.9141 F   0  0  0  0  0  0  0  0  0  0  0  0
    5.1690   -0.0464   -1.1931 F   0  0  0  0  0  0  0  0  0  0  0  0
    4.7294   -0.6375    0.8511 F   0  0  0  0  0  0  0  0  0  0  0  0
   -5.1672    0.7135    0.2793 F   0  0  0  0  0  0  0  0  0  0  0  0
   -4.1607    2.6478    0.2971 F   0  0  0  0  0  0  0  0  0  0  0  0
   -3.4646    1.0533    1.6016 F   0  0  0  0  0  0  0  0  0  0  0  0
    4.5780    1.8030    1.4993 O   0  0  0  0  0  0  0  0  0  0  0  0
    3.9272    2.4918   -0.5665 O   0  0  0  0  0  0  0  0  0  0  0  0
   -0.6611   -0.7372    0.8911 C   0  0  0  0  0  0  0  0  0  0  0  0
    0.4673   -0.8332   -0.1279 C   0  0  0  0  0  0  0  0  0  0  0  0
   -2.0218   -1.2579    0.4484 C   0  0  0  0  0  0  0  0  0  0  0  0
    1.7999   -0.2948    0.3808 C   0  0  0  0  0  0  0  0  0  0  0  0
   -2.7019   -0.6269   -0.7578 C   0  0  0  0  0  0  0  0  0  0  0  0
    2.9297   -0.3902   -0.6376 C   0  0  0  0  0  0  0  0  0  0  0  0
   -3.0326    0.8570   -0.7225 C   0  0  0  0  0  0  0  0  0  0  0  0
    4.2805    0.1355   -0.1749 C   0  0  0  0  0  0  0  0  0  0  0  0
   -3.9615    1.3125    0.3757 C   0  0  0  0  0  0  0  0  0  0  0  0
    4.2412    1.5934    0.2030 C   0  0  0  0  0  0  0  0  0  0  0  0
    4.5421    2.7537    1.7381 H   0  0  0  0  0  0  0  0  0  0  0  0
  1 22  1  0  0  0  0
  2 22  1  0  0  0  0
  3 23  1  0  0  0  0
  4 23  1  0  0  0  0
  5 24  1  0  0  0  0
  6 24  1  0  0  0  0
  7 25  1  0  0  0  0
  8 25  1  0  0  0  0
  9 26  1  0  0  0  0
 10 26  1  0  0  0  0
 11 27  1  0  0  0  0
 12 27  1  0  0  0  0
 13 28  1  0  0  0  0
 14 28  1  0  0  0  0
 15 29  1  0  0  0  0
 16 29  1  0  0  0  0
 17 30  1  0  0  0  0
 18 30  1  0  0  0  0
 19 30  1  0  0  0  0
 20 31  1  0  0  0  0
 20 32  1  0  0  0  0
 21 31  2  0  0  0  0
 22 23  1  0  0  0  0
 22 24  1  0  0  0  0
 23 25  1  0  0  0  0
 24 26  1  0  0  0  0
 25 27  1  0  0  0  0
 26 28  1  0  0  0  0
 27 29  1  0  0  0  0
 28 30  1  0  0  0  0
 29 31  1  0  0  0  0
M  END
> <PUBCHEM_COMPOUND_CID>
9555

> <PUBCHEM_CONFORMER_RMSD>
1

> <PUBCHEM_CONFORMER_DIVERSEORDER>
1
441
37
375
3
388
337
172
229
297
314
55
423
165
430
408
179
428
339
211
64
95
360
210
474
114
290
197
261
317
368
32
299
92
130
432
126
39
315
446
43
214
105
40
106
440
293
475
194
376
19
335
159
330
128
241
151
323
421
390
85
240
259
387
150
50
18
48
445
162
395
372
289
47
366
199
257
255
137
424
353
23
35
183
134
292
12
65
41
124
53
373
359
450
327
472
267
20
288
21
82
209
117
469
45
455
59
409
220
60
4
291
417
254
319
433
236
243
264
163
174
24
471
380
192
467
131
154
125
121
413
138
466
286
415
42
258
181
276
235
454
14
188
345
465
363
452
143
161
406
393
61
15
427
444
397
303
203
362
33
355
429
318
218
190
149
221
275
396
30
204
17
8
247
177
153
402
207
167
342
68
118
111
370
186
144
66
135
287
457
69
26
133
473
304
57
225
222
262
83
365
182
213
333
301
107
119
73
416
31
307
442
459
410
88
27
212
100
249
97
116
449
155
72
87
10
361
336
316
52
382
347
185
223
273
168
248
104
311
54
265
81
448
176
435
274
340
246
79
9
178
357
463
63
349
282
392
58
148
367
200
80
458
470
141
453
352
110
166
28
170
228
70
16
205
147
358
302
461
464
193
36
394
51
389
431
217
250
120
94
158
320
434
350
5
306
25
312
198
76
6
145
123
377
451
160
67
101
86
173
164
386
169
384
280
216
422
206
2
369
266
436
244
334
102
202
127
195
226
13
270
146
271
294
310
425
22
227
344
401
136
140
44
426
278
354
420
74
398
322
245
371
260
215
468
7
187
298
364
175
325
113
313
411
272
129
46
279
11
305
77
208
329
391
93
62
419
34
253
38
348
405
309
56
341
242
284
414
324
251
99
383
122
252
400
308
231
189
412
98
96
108
78
296
456
139
156
438
112
328
232
283
295
378
49
439
201
184
399
75
132
332
268
346
403
374
233
89
462
90
326
418
404
91
238
447
321
219
269
407
239
263
256
109
285
379
460
385
71
356
142
230
300
29
234
277
103
351
381
331
224
443
157
437
338
237
343
84
180
152
196
191
115
281
171

> <PUBCHEM_MMFF94_PARTIAL_CHARGES>
32
1 -0.34
10 -0.34
11 -0.34
12 -0.34
13 -0.34
14 -0.34
15 -0.34
16 -0.34
17 -0.34
18 -0.34
19 -0.34
2 -0.34
20 -0.65
21 -0.57
22 0.68
23 0.68
24 0.68
25 0.68
26 0.68
27 0.68
28 0.68
29 0.74
3 -0.34
30 1.02
31 0.66
32 0.5
4 -0.34
5 -0.34
6 -0.34
7 -0.34
8 -0.34
9 -0.34

> <PUBCHEM_EFFECTIVE_ROTOR_COUNT>
9

> <PUBCHEM_PHARMACOPHORE_FEATURES>
3
1 20 acceptor
1 21 acceptor
3 20 21 31 anion

> <PUBCHEM_HEAVY_ATOM_COUNT>
31

> <PUBCHEM_ATOM_DEF_STEREO_COUNT>
0

> <PUBCHEM_ATOM_UDEF_STEREO_COUNT>
0

> <PUBCHEM_BOND_DEF_STEREO_COUNT>
0

> <PUBCHEM_BOND_UDEF_STEREO_COUNT>
0

> <PUBCHEM_ISOTOPIC_ATOM_COUNT>
0

> <PUBCHEM_COMPONENT_COUNT>
1

> <PUBCHEM_CACTVS_TAUTO_COUNT>
1

> <PUBCHEM_CONFORMER_ID>
0000255300000001

> <PUBCHEM_MMFF94_ENERGY>
26.4111

> <PUBCHEM_FEATURE_SELFOVERLAP>
15.281

> <PUBCHEM_SHAPE_FINGERPRINT>
10498660 4 18335127679366244429
10646746 165 18334859433094215108
10863032 1 18131068216707845687
10948715 1 18341054000159020967
11132069 177 17749104499989221758
11405975 8 18407758140790332514
11552529 35 13262980523337222017
11595378 159 16153420641130321508
121448 382 17823124778428904851
12173636 292 18334860502535992063
12403259 415 18271253828141940352
12596602 18 14562822070546209276
12633257 1 17676762158711091956
12670546 56 18041268941888675450
12788726 201 16342866413001888411
128620 24 17417811789896336446
12892183 10 13334735739108470956
13224815 77 18411419539863853372
13675066 3 16225760800987167786
14004511 7 17385436627056437946
14251764 38 18338232790508653664
14341114 176 12324241646263971468
15209294 21 17822012007914936025
15309172 13 16153428341895809307
15463212 79 18270948141828544543
15788980 27 17918278658106528574
16945 1 18336539422278938691
17349148 13 18333447651521566020
17959699 21 18343585131323191816
1813 80 12391512005150005122
18186145 218 18409172125623090890
193927 3 11383827212086154389
19862831 5 16486971778113062534
200 152 13038900010688484651
20645477 56 18334300859401387999
20775530 9 9149157725370080513
21033648 29 18340205306184585792
21623110 236 18115873077961102349
21709351 56 18130794486226920444
22079108 93 18113343015990320905
22393880 68 18131354133134466782
22646028 28 11312051054306726445
23227448 37 18409733988739056165
23402539 116 17846780698375795656
23557571 272 18263376921955034310
23559900 14 18130508531557673934
2838139 119 18194955258842546733
296302 2 18272653445602439462
469060 322 16660654007098069755
474 4 18335423473658379116
5104073 3 17895191134405611480
633830 44 18409448102925722230

> <PUBCHEM_SHAPE_MULTIPOLES>
488.03
10.03
2.13
1.55
3.86
0.39
0.01
4.72
-0.42
-0.51
0.15
-0.22
-0.1
0.26

> <PUBCHEM_SHAPE_SELFOVERLAP>
1065.368

> <PUBCHEM_SHAPE_VOLUME>
259.3

> <PUBCHEM_COORDINATE_TYPE>
2
5
10

$$$$
