185588
  -OEChem-06242519123D

 25 25  0     1  0  0  0  0  0999 V2000
   -4.5655   -1.0958    0.4434 Cl  0  0  0  0  0  0  0  0  0  0  0  0
    0.9800    0.5853   -0.5137 O   0  0  0  0  0  0  0  0  0  0  0  0
    3.9098   -1.0566    0.7827 O   0  0  0  0  0  0  0  0  0  0  0  0
    2.9994   -1.0049   -1.2958 O   0  0  0  0  0  0  0  0  0  0  0  0
    1.9329    0.2484    0.4924 C   0  0  2  0  0  0  0  0  0  0  0  0
   -0.3110    0.2091   -0.2942 C   0  0  0  0  0  0  0  0  0  0  0  0
   -1.3294    1.1598   -0.2244 C   0  0  0  0  0  0  0  0  0  0  0  0
   -0.6083   -1.1443   -0.1358 C   0  0  0  0  0  0  0  0  0  0  0  0
    2.5577    1.5372    0.9976 C   0  0  0  0  0  0  0  0  0  0  0  0
   -2.6452    0.7569    0.0039 C   0  0  0  0  0  0  0  0  0  0  0  0
   -1.0285    2.6128   -0.3907 C   0  0  0  0  0  0  0  0  0  0  0  0
   -1.9241   -1.5473    0.0924 C   0  0  0  0  0  0  0  0  0  0  0  0
   -2.9426   -0.5967    0.1623 C   0  0  0  0  0  0  0  0  0  0  0  0
    2.9748   -0.6640   -0.1203 C   0  0  0  0  0  0  0  0  0  0  0  0
    1.4676   -0.2844    1.3319 H   0  0  0  0  0  0  0  0  0  0  0  0
    3.0510    2.0785    0.1822 H   0  0  0  0  0  0  0  0  0  0  0  0
    3.3015    1.3480    1.7777 H   0  0  0  0  0  0  0  0  0  0  0  0
    1.7907    2.2043    1.4046 H   0  0  0  0  0  0  0  0  0  0  0  0
    0.1714   -1.8986   -0.1973 H   0  0  0  0  0  0  0  0  0  0  0  0
   -3.4402    1.4970    0.0601 H   0  0  0  0  0  0  0  0  0  0  0  0
   -1.9417    3.2063   -0.5080 H   0  0  0  0  0  0  0  0  0  0  0  0
   -0.4925    2.9902    0.4857 H   0  0  0  0  0  0  0  0  0  0  0  0
   -0.4191    2.7820   -1.2848 H   0  0  0  0  0  0  0  0  0  0  0  0
   -2.1414   -2.6057    0.2116 H   0  0  0  0  0  0  0  0  0  0  0  0
    4.5871   -1.6395    0.3778 H   0  0  0  0  0  0  0  0  0  0  0  0
  1 13  1  0  0  0  0
  2  5  1  0  0  0  0
  2  6  1  0  0  0  0
  3 14  1  0  0  0  0
  3 25  1  0  0  0  0
  4 14  2  0  0  0  0
  5  9  1  0  0  0  0
  5 14  1  0  0  0  0
  5 15  1  0  0  0  0
  6  7  2  0  0  0  0
  6  8  1  0  0  0  0
  7 10  1  0  0  0  0
  7 11  1  0  0  0  0
  8 12  2  0  0  0  0
  8 19  1  0  0  0  0
  9 16  1  0  0  0  0
  9 17  1  0  0  0  0
  9 18  1  0  0  0  0
 10 13  2  0  0  0  0
 10 20  1  0  0  0  0
 11 21  1  0  0  0  0
 11 22  1  0  0  0  0
 11 23  1  0  0  0  0
 12 13  1  0  0  0  0
 12 24  1  0  0  0  0
M  END
> <PUBCHEM_COMPOUND_CID>
185588

> <PUBCHEM_CONFORMER_RMSD>
0.6

> <PUBCHEM_CONFORMER_DIVERSEORDER>
1
6
9
18
14
15
17
11
12
13
10
4
20
16
2
5
19
7
3
8

> <PUBCHEM_MMFF94_PARTIAL_CHARGES>
17
1 -0.18
10 -0.15
11 0.14
12 -0.15
13 0.18
14 0.66
19 0.15
2 -0.36
20 0.15
24 0.15
25 0.5
3 -0.65
4 -0.57
5 0.34
6 0.08
7 -0.14
8 -0.15

> <PUBCHEM_EFFECTIVE_ROTOR_COUNT>
3

> <PUBCHEM_PHARMACOPHORE_FEATURES>
5
1 2 acceptor
1 3 acceptor
1 4 acceptor
3 3 4 14 anion
6 6 7 8 10 12 13 rings

> <PUBCHEM_HEAVY_ATOM_COUNT>
14

> <PUBCHEM_ATOM_DEF_STEREO_COUNT>
1

> <PUBCHEM_ATOM_UDEF_STEREO_COUNT>
0

> <PUBCHEM_BOND_DEF_STEREO_COUNT>
0

> <PUBCHEM_BOND_UDEF_STEREO_COUNT>
0

> <PUBCHEM_ISOTOPIC_ATOM_COUNT>
0

> <PUBCHEM_COMPONENT_COUNT>
1

> <PUBCHEM_CACTVS_TAUTO_COUNT>
1

> <PUBCHEM_CONFORMER_ID>
0002D4F400000001

> <PUBCHEM_MMFF94_ENERGY>
35.8158

> <PUBCHEM_FEATURE_SELFOVERLAP>
25.437

> <PUBCHEM_SHAPE_FINGERPRINT>
10608611 8 18342450435365589840
10618630 7 18334012826056978607
11543360 7 14635155680773296667
12032990 46 18335988644494858339
12251169 10 17988643029511736410
13296908 3 18334008423784072017
13581323 91 18408601448659656630
14252887 29 18337676441766206419
15219456 202 18273208716365442608
15848700 24 18411979200120232951
16945 1 18338232657042050189
17804303 29 18339928121368351222
19026448 5 14851877067723352223
19049666 15 17985262967870269660
19422 9 17749394706977453106
200 152 14273449288616632106
20510252 161 18341895173477416689
20871998 184 18342455915790929815
20871998 22 18335983181059152473
23388829 49 17264392727473097191
23402539 116 18343292670363320639
23463225 33 18335986449492127151
23532345 42 18336546118074794441
23559900 14 18408878525758765220
2748010 2 18410566301740139749
31174 14 18130502041202525040
3286 77 17346873477241734243
43471831 8 18187926106343403523
474 4 16734692968376335756
57812782 119 18273209772716205935
69090 78 18060132176360215055
7364860 26 18195815286956153420
81228 2 18334017168390669497

> <PUBCHEM_SHAPE_MULTIPOLES>
272.38
6.8
2.01
0.87
0.24
1.09
0.02
-3.02
-1.26
0.27
0.1
-0.53
-0.01
0.62

> <PUBCHEM_SHAPE_SELFOVERLAP>
552.776

> <PUBCHEM_SHAPE_VOLUME>
160.9

> <PUBCHEM_COORDINATE_TYPE>
2
5
10

$$$$
