135403821
  -OEChem-07152417002D

 63 68  0  0  1  0            999 V2000
   -0.6468    1.8548   -1.6522 C   0  0  0  0  0  0  0  0  0  0  0  0
    0.2980    2.6075   -2.3521 C   0  0  0  0  0  0  0  0  0  0  0  0
   -0.6839    4.1067   -1.0671 C   0  0  1  0  0  0  0  0  0  0  0  0
    0.1176   -0.1681   -2.8044 C   0  0  0  0  0  0  0  0  0  0  0  0
   -0.7615    0.4495   -1.8562 C   0  0  0  0  0  0  0  0  0  0  0  0
    0.1999    3.8233   -2.0283 O   0  0  0  0  0  0  0  0  0  0  0  0
    1.0882    0.6289   -3.4884 C   0  0  0  0  0  0  0  0  0  0  0  0
   -1.2687    2.8018   -0.8623 C   0  0  0  0  0  0  0  0  0  0  0  0
    1.1978    2.0245   -3.2630 C   0  0  0  0  0  0  0  0  0  0  0  0
    3.9748    2.7313    1.2941 C   0  0  1  0  0  0  0  0  0  0  0  0
   -0.7805   -3.6752   -2.5408 N   0  0  0  0  0  0  0  0  0  0  0  0
   -0.9044   -2.3751   -2.2866 C   0  0  0  0  0  0  0  0  0  0  0  0
    2.7971    1.8035    0.8243 C   0  0  1  0  0  0  0  0  0  0  0  0
   -1.6940   -0.3662   -1.1627 C   0  0  0  0  0  0  0  0  0  0  0  0
   -1.2504   -4.8554   -2.3193 C   0  0  0  0  0  0  0  0  0  0  0  0
    2.6461   -0.9541    0.1796 C   0  0  1  0  0  0  0  0  0  0  0  0
    3.3720    0.4479    0.2777 C   0  0  1  0  0  0  0  0  0  0  0  0
    0.0030   -1.5700   -3.0206 C   0  0  0  0  0  0  0  0  0  0  0  0
    3.9097    4.2481    0.8998 C   0  0  1  0  0  0  0  0  0  0  0  0
   -1.7819   -1.7690   -1.3581 C   0  0  0  0  0  0  0  0  0  0  0  0
    3.4078   -2.0439   -0.6762 C   0  0  2  0  0  0  0  0  0  0  0  0
   -0.4348   -5.8830   -2.6809 C   0  0  0  0  0  0  0  0  0  0  0  0
   -0.1646    4.5165    0.1033 O   0  0  0  0  0  0  0  0  0  0  0  0
    4.3991    2.5200    2.5617 O   0  0  0  0  0  0  0  0  0  0  0  0
    1.0056    4.8197    0.3189 C   0  0  0  0  0  0  0  0  0  0  0  0
    5.4153    2.0004    3.0666 C   0  0  0  0  0  0  0  0  0  0  0  0
    1.5725    4.9040    1.5208 C   0  0  0  0  0  0  0  0  0  0  0  0
    2.9737    5.2518    1.6687 C   0  0  2  0  0  0  0  0  0  0  0  0
    1.8654   -5.2164   -1.9317 C   0  0  0  0  0  0  0  0  0  0  0  0
   -2.1622    2.6378   -0.0418 O   0  0  0  0  0  0  0  0  0  0  0  0
    0.8935   -5.9595   -2.5025 C   0  0  0  0  0  0  0  0  0  0  0  0
   -2.3698   -5.0344   -1.8546 O   0  0  0  0  0  0  0  0  0  0  0  0
    3.1552   -3.5938   -0.7080 C   0  0  2  0  0  0  0  0  0  0  0  0
    1.8900   -4.0867   -1.2097 C   0  0  0  0  0  0  0  0  0  0  0  0
    5.4816    2.0609    4.2832 O   0  0  0  0  0  0  0  0  0  0  0  0
    1.8871    0.0984   -4.3135 O   0  0  0  0  0  0  0  0  0  0  0  0
    3.7920    0.8245   -1.0340 O   0  0  0  0  0  0  0  0  0  0  0  0
    0.7313   -2.1380   -3.8869 O   0  0  0  0  0  0  0  0  0  0  0  0
    4.8270   -1.9043   -0.5605 O   0  0  0  0  0  0  0  0  0  0  0  0
   -1.6755    5.1692   -1.5943 C   0  0  0  0  0  0  0  0  0  0  0  0
    2.2050    2.8917   -3.9202 C   0  0  0  0  0  0  0  0  0  0  0  0
    2.3028   -1.4635    1.5966 C   0  0  0  0  0  0  0  0  0  0  0  0
    3.1287    6.6203    1.2244 O   0  0  0  0  0  0  0  0  0  0  0  0
   -0.9363   -7.0621   -3.3451 C   0  0  0  0  0  0  0  0  0  0  0  0
    6.5312    1.3357    2.4314 C   0  0  0  0  0  0  0  0  0  0  0  0
    3.5541   -4.3837    0.5646 C   0  0  0  0  0  0  0  0  0  0  0  0
    2.8018    7.6231    2.1964 C   0  0  0  0  0  0  0  0  0  0  0  0
    1.6368    1.7261    1.8458 C   0  0  0  0  0  0  0  0  0  0  0  0
    5.3620    4.7657    0.8078 C   0  0  0  0  0  0  0  0  0  0  0  0
   -2.4560    0.1438   -0.3073 O   0  0  0  0  0  0  0  0  0  0  0  0
   -2.6638   -2.5510   -0.6285 C   0  0  0  0  0  0  0  0  0  0  0  0
   -3.8096   -2.1528   -0.2105 N   0  0  0  0  0  0  0  0  0  0  0  0
   -4.7191   -2.6034    0.4969 N   0  0  0  0  0  0  0  0  0  0  0  0
   -5.8867   -1.8207    0.4129 C   0  0  0  0  0  0  0  0  0  0  0  0
   -4.6090   -3.6895    1.4021 C   0  0  0  0  0  0  0  0  0  0  0  0
   -6.1181   -1.1533    1.7989 C   0  0  0  0  0  0  0  0  0  0  0  0
   -4.8068   -3.1337    2.8478 C   0  0  0  0  0  0  0  0  0  0  0  0
   -5.9396   -2.1448    2.9240 N   0  0  0  0  0  0  0  0  0  0  0  0
   -6.0931   -1.6445    4.3209 C   0  0  2  0  0  0  0  0  0  0  0  0
   -7.4901   -1.1314    4.7040 C   0  0  0  0  0  0  0  0  0  0  0  0
   -5.1652   -0.5144    4.8202 C   0  0  0  0  0  0  0  0  0  0  0  0
   -7.2441   -0.5647    6.1012 C   0  0  0  0  0  0  0  0  0  0  0  0
   -5.9071    0.1693    5.9732 C   0  0  0  0  0  0  0  0  0  0  0  0
  1  2  2  0  0  0  0
  1  5  1  0  0  0  0
  1  8  1  0  0  0  0
  2  6  1  0  0  0  0
  2  9  1  0  0  0  0
  3  8  1  0  0  0  0
  3 23  1  0  0  0  0
  3 40  1  0  0  0  0
  3  6  1  0  0  0  0
  4  5  2  0  0  0  0
  4  7  1  0  0  0  0
  4 18  1  0  0  0  0
  5 14  1  0  0  0  0
  7 36  1  0  0  0  0
  7  9  2  0  0  0  0
  8 30  2  0  0  0  0
  9 41  1  0  0  0  0
 10 19  1  0  0  0  0
 10 13  1  0  0  0  0
 10 24  1  0  0  0  0
 11 12  1  0  0  0  0
 11 15  1  0  0  0  0
 12 20  1  0  0  0  0
 12 18  2  0  0  0  0
 13 17  1  0  0  0  0
 13 48  1  0  0  0  0
 14 20  2  0  0  0  0
 14 50  1  0  0  0  0
 15 22  1  0  0  0  0
 15 32  2  0  0  0  0
 16 17  1  0  0  0  0
 16 21  1  0  0  0  0
 16 42  1  0  0  0  0
 17 37  1  0  0  0  0
 18 38  1  0  0  0  0
 19 28  1  0  0  0  0
 19 49  1  0  0  0  0
 20 51  1  0  0  0  0
 21 39  1  0  0  0  0
 21 33  1  0  0  0  0
 22 31  2  0  0  0  0
 22 44  1  0  0  0  0
 23 25  1  0  0  0  0
 24 26  1  0  0  0  0
 25 27  2  0  0  0  0
 26 35  2  0  0  0  0
 26 45  1  0  0  0  0
 27 28  1  0  0  0  0
 28 43  1  0  0  0  0
 29 31  1  0  0  0  0
 29 34  2  0  0  0  0
 33 34  1  0  0  0  0
 33 46  1  0  0  0  0
 43 47  1  0  0  0  0
 51 52  2  0  0  0  0
 52 53  1  0  0  0  0
 53 54  1  0  0  0  0
 53 55  1  0  0  0  0
 54 56  1  0  0  0  0
 55 57  1  0  0  0  0
 56 58  1  0  0  0  0
 57 58  1  0  0  0  0
 58 59  1  0  0  0  0
 59 60  1  0  0  0  0
 59 61  1  0  0  0  0
 60 62  1  0  0  0  0
 61 63  1  0  0  0  0
 62 63  1  0  0  0  0
M  END
> <PUBCHEM_COMPOUND_CID>
135403821

> <PUBCHEM_COMPOUND_CANONICALIZED>
1

> <PUBCHEM_CACTVS_COMPLEXITY>
1730

> <PUBCHEM_CACTVS_HBOND_ACCEPTOR>
15

> <PUBCHEM_CACTVS_HBOND_DONOR>
6

> <PUBCHEM_CACTVS_ROTATABLE_BOND>
6

> <PUBCHEM_CACTVS_SUBSKEYS>
AAADcfB/vAAAAAAAAAAAAAAAAAAAAaIAAAA8YIAAAAAAAEjBUAAAHgAYCAAADTzhmAYCzsPABgCoArXzWAKSCAAlIAAYiAFtTNgedzbWtZ+2eWjn7B3c+Yf6/P/O6QADSgAaEADSAAaUADQgAAAAAAAAAA==

> <PUBCHEM_IUPAC_OPENEYE_NAME>
[(7S,9E,11S,12R,13S,14R,15R,16R,17S,18S,19E,21Z)-26-[(E)-(4-cyclopentylpiperazin-1-yl)iminomethyl]-2,15,17,27,29-pentahydroxy-11-methoxy-3,7,12,14,16,18,22-heptamethyl-6,23-dioxo-8,30-dioxa-24-azatetracyclo[23.3.1.14,7.05,28]triaconta-1(29),2,4,9,19,21,25,27-octaen-13-yl] acetate

> <PUBCHEM_IUPAC_CAS_NAME>
acetic acid [(7S,9E,11S,12R,13S,14R,15R,16R,17S,18S,19E,21Z)-26-[(E)-(4-cyclopentyl-1-piperazinyl)iminomethyl]-2,15,17,27,29-pentahydroxy-11-methoxy-3,7,12,14,16,18,22-heptamethyl-6,23-dioxo-8,30-dioxa-24-azatetracyclo[23.3.1.14,7.05,28]triaconta-1(29),2,4,9,19,21,25,27-octaen-13-yl] ester

> <PUBCHEM_IUPAC_NAME_MARKUP>
[(7<I>S</I>,9<I>E</I>,11<I>S</I>,12<I>R</I>,13<I>S</I>,14<I>R</I>,15<I>R</I>,16<I>R</I>,17<I>S</I>,18<I>S</I>,19<I>E</I>,21<I>Z</I>)-26-[(<I>E</I>)-(4-cyclopentylpiperazin-1-yl)iminomethyl]-2,15,17,27,29-pentahydroxy-11-methoxy-3,7,12,14,16,18,22-heptamethyl-6,23-dioxo-8,30-dioxa-24-azatetracyclo[23.3.1.1<SUP>4,7</SUP>.0<SUP>5,28</SUP>]triaconta-1(29),2,4,9,19,21,25,27-octaen-13-yl] acetate

> <PUBCHEM_IUPAC_NAME>
[(7S,9E,11S,12R,13S,14R,15R,16R,17S,18S,19E,21Z)-26-[(E)-(4-cyclopentylpiperazin-1-yl)iminomethyl]-2,15,17,27,29-pentahydroxy-11-methoxy-3,7,12,14,16,18,22-heptamethyl-6,23-dioxo-8,30-dioxa-24-azatetracyclo[23.3.1.14,7.05,28]triaconta-1(29),2,4,9,19,21,25,27-octaen-13-yl] acetate

> <PUBCHEM_IUPAC_SYSTEMATIC_NAME>
[(7S,9E,11S,12R,13S,14R,15R,16R,17S,18S,19E,21Z)-26-[(E)-(4-cyclopentylpiperazin-1-yl)iminomethyl]-11-methoxy-3,7,12,14,16,18,22-heptamethyl-2,15,17,27,29-pentakis(oxidanyl)-6,23-bis(oxidanylidene)-8,30-dioxa-24-azatetracyclo[23.3.1.14,7.05,28]triaconta-1(29),2,4,9,19,21,25,27-octaen-13-yl] ethanoate

> <PUBCHEM_IUPAC_TRADITIONAL_NAME>
acetic acid [(7S,9E,11S,12R,13S,14R,15R,16R,17S,18S,19E,21Z)-26-[(E)-(4-cyclopentylpiperazino)iminomethyl]-2,15,17,27,29-pentahydroxy-6,23-diketo-11-methoxy-3,7,12,14,16,18,22-heptamethyl-8,30-dioxa-24-azatetracyclo[23.3.1.14,7.05,28]triaconta-1(29),2,4,9,19,21,25,27-octaen-13-yl] ester

> <PUBCHEM_IUPAC_INCHI>
InChI=1S/C47H64N4O12/c1-24-13-12-14-25(2)46(59)49-37-32(23-48-51-20-18-50(19-21-51)31-15-10-11-16-31)41(56)34-35(42(37)57)40(55)29(6)44-36(34)45(58)47(8,63-44)61-22-17-33(60-9)26(3)43(62-30(7)52)28(5)39(54)27(4)38(24)53/h12-14,17,22-24,26-28,31,33,38-39,43,53-57H,10-11,15-16,18-21H2,1-9H3,(H,49,59)/b13-12+,22-17+,25-14-,48-23+/t24-,26+,27+,28+,33-,38-,39+,43+,47-/m0/s1

> <PUBCHEM_IUPAC_INCHIKEY>
WDZCUPBHRAEYDL-GZAUEHORSA-N

> <PUBCHEM_XLOGP3_AA>
6.7

> <PUBCHEM_EXACT_MASS>
876.45207349

> <PUBCHEM_MOLECULAR_FORMULA>
C47H64N4O12

> <PUBCHEM_MOLECULAR_WEIGHT>
877.0

> <PUBCHEM_REFERENCE_STANDARDIZATION>
Bypass - this structure was created from CID 135403821

> <PUBCHEM_OPENEYE_CAN_SMILES>
CC1C=CC=C(C(=O)NC2=C(C(=C3C(=C2O)C(=C(C4=C3C(=O)C(O4)(OC=CC(C(C(C(C(C(C1O)C)O)C)OC(=O)C)C)OC)C)C)O)O)C=NN5CCN(CC5)C6CCCC6)C

> <PUBCHEM_OPENEYE_ISO_SMILES>
C[C@H]1/C=C/C=C(\C(=O)NC2=C(C(=C3C(=C2O)C(=C(C4=C3C(=O)[C@](O4)(O/C=C/[C@@H]([C@H]([C@H]([C@@H]([C@@H]([C@@H]([C@H]1O)C)O)C)OC(=O)C)C)OC)C)C)O)O)/C=N/N5CCN(CC5)C6CCCC6)/C

> <PUBCHEM_CACTVS_TPSA>
220

> <PUBCHEM_MONOISOTOPIC_WEIGHT>
876.45207349

> <PUBCHEM_TOTAL_CHARGE>
0

> <PUBCHEM_HEAVY_ATOM_COUNT>
63

> <PUBCHEM_ATOM_DEF_STEREO_COUNT>
9

> <PUBCHEM_ATOM_UDEF_STEREO_COUNT>
0

> <PUBCHEM_BOND_DEF_STEREO_COUNT>
4

> <PUBCHEM_BOND_UDEF_STEREO_COUNT>
0

> <PUBCHEM_ISOTOPIC_ATOM_COUNT>
0

> <PUBCHEM_COMPONENT_COUNT>
1

> <PUBCHEM_CACTVS_TAUTO_COUNT>
-1

> <PUBCHEM_COORDINATE_TYPE>
1
5
255

> <PUBCHEM_BONDANNOTATIONS>
28  1  5
25  2  5
24  32  5
29  35  6
31  3  5
30  36  6
34  37  5
33  4  6
43  49  8
43  51  8
45  59  5
47  48  8
47  49  8
47  54  8
48  53  8
51  55  8
53  56  8
54  55  8
54  58  8
56  58  8

$$$$
