6436726
  -OEChem-07152413083D

 95 98  0     1  0  0  0  0  0999 V2000
   -0.5295   -2.2785    0.9554 O   0  0  0  0  0  0  0  0  0  0  0  0
    1.3192   -0.6093   -1.6053 O   0  0  0  0  0  0  0  0  0  0  0  0
    5.4555   -2.9891   -0.9893 O   0  0  0  0  0  0  0  0  0  0  0  0
   -3.0865   -3.1471    1.3328 O   0  0  0  0  0  0  0  0  0  0  0  0
   -5.3922   -0.1595   -1.3861 O   0  0  0  0  0  0  0  0  0  0  0  0
   -4.7462    1.2231    0.4902 O   0  0  0  0  0  0  0  0  0  0  0  0
   -0.5091   -4.5592    1.3227 O   0  0  0  0  0  0  0  0  0  0  0  0
   -3.1944    1.3283   -2.6848 O   0  0  0  0  0  0  0  0  0  0  0  0
   -1.2003    2.6520    3.3478 O   0  0  0  0  0  0  0  0  0  0  0  0
   -1.0047    2.7320   -2.6512 O   0  0  0  0  0  0  0  0  0  0  0  0
    0.9891    3.3105    2.2156 O   0  0  0  0  0  0  0  0  0  0  0  0
    3.7977    3.0619   -1.9105 O   0  0  0  0  0  0  0  0  0  0  0  0
    2.7807    3.0320    0.2105 N   0  0  0  0  0  0  0  0  0  0  0  0
    0.7428   -2.8728   -1.0431 C   0  0  2  0  0  0  0  0  0  0  0  0
    1.8133   -1.7433   -0.8686 C   0  0  1  0  0  0  0  0  0  0  0  0
   -0.6448   -2.4260   -0.4610 C   0  0  1  0  0  0  0  0  0  0  0  0
    3.2683   -2.0042   -1.3694 C   0  0  1  0  0  0  0  0  0  0  0  0
   -1.8413   -3.3846   -0.7683 C   0  0  1  0  0  0  0  0  0  0  0  0
    4.1906   -2.7498   -0.3593 C   0  0  2  0  0  0  0  0  0  0  0  0
    1.1881   -4.1964   -0.4106 C   0  0  0  0  0  0  0  0  0  0  0  0
   -3.1871   -2.9969   -0.0850 C   0  0  2  0  0  0  0  0  0  0  0  0
    4.4245   -2.0119    0.9881 C   0  0  1  0  0  0  0  0  0  0  0  0
    3.2854   -2.6593   -2.7622 C   0  0  0  0  0  0  0  0  0  0  0  0
   -2.0520   -3.5467   -2.2794 C   0  0  0  0  0  0  0  0  0  0  0  0
    5.1011   -2.9336    2.0142 C   0  0  0  0  0  0  0  0  0  0  0  0
   -3.6758   -1.6067   -0.3839 C   0  0  0  0  0  0  0  0  0  0  0  0
    5.2489   -0.7482    0.8488 C   0  0  0  0  0  0  0  0  0  0  0  0
   -0.2146   -3.4152    1.6415 C   0  0  0  0  0  0  0  0  0  0  0  0
   -4.8013   -1.3452   -1.0646 C   0  0  0  0  0  0  0  0  0  0  0  0
    4.7234    0.4682    0.6376 C   0  0  0  0  0  0  0  0  0  0  0  0
   -4.3432   -2.9524    1.9604 C   0  0  0  0  0  0  0  0  0  0  0  0
   -4.8848    1.0930   -0.9425 C   0  0  1  0  0  0  0  0  0  0  0  0
    0.5634   -3.0608    2.8724 C   0  0  0  0  0  0  0  0  0  0  0  0
   -2.7108    1.9371   -0.4265 C   0  0  0  0  0  0  0  0  0  0  0  0
   -3.5318    1.4600   -1.5249 C   0  0  0  0  0  0  0  0  0  0  0  0
   -3.4932    1.7470    0.7045 C   0  0  0  0  0  0  0  0  0  0  0  0
   -1.4026    2.3951   -0.3397 C   0  0  0  0  0  0  0  0  0  0  0  0
   -5.9018    2.1467   -1.3921 C   0  0  0  0  0  0  0  0  0  0  0  0
    5.5243    1.6715    0.5366 C   0  0  0  0  0  0  0  0  0  0  0  0
   -3.0048    2.0059    1.9703 C   0  0  0  0  0  0  0  0  0  0  0  0
   -0.8821    2.6154    0.9412 C   0  0  0  0  0  0  0  0  0  0  0  0
   -1.6839    2.4372    2.0879 C   0  0  0  0  0  0  0  0  0  0  0  0
    5.1563    2.8465   -0.0063 C   0  0  0  0  0  0  0  0  0  0  0  0
   -0.5546    2.6524   -1.5163 C   0  0  0  0  0  0  0  0  0  0  0  0
    0.5354    2.9903    1.1221 C   0  0  0  0  0  0  0  0  0  0  0  0
    1.4296    2.9551   -0.0702 C   0  0  0  0  0  0  0  0  0  0  0  0
   -3.8601    1.7899    3.1729 C   0  0  0  0  0  0  0  0  0  0  0  0
    0.8966    2.8197   -1.2895 C   0  0  0  0  0  0  0  0  0  0  0  0
    3.8363    2.9916   -0.6867 C   0  0  0  0  0  0  0  0  0  0  0  0
    6.0630    4.0342   -0.0962 C   0  0  0  0  0  0  0  0  0  0  0  0
    0.6084   -3.0304   -2.1191 H   0  0  0  0  0  0  0  0  0  0  0  0
    1.8309   -1.4187    0.1735 H   0  0  0  0  0  0  0  0  0  0  0  0
   -0.8907   -1.4364   -0.8618 H   0  0  0  0  0  0  0  0  0  0  0  0
    3.7232   -1.0194   -1.5455 H   0  0  0  0  0  0  0  0  0  0  0  0
   -1.6394   -4.4023   -0.4355 H   0  0  0  0  0  0  0  0  0  0  0  0
    3.7748   -3.7377   -0.1529 H   0  0  0  0  0  0  0  0  0  0  0  0
    1.6707   -4.1225    0.5647 H   0  0  0  0  0  0  0  0  0  0  0  0
    0.4564   -5.0003   -0.5145 H   0  0  0  0  0  0  0  0  0  0  0  0
    1.9945   -4.5959   -1.0385 H   0  0  0  0  0  0  0  0  0  0  0  0
   -3.9325   -3.7294   -0.4273 H   0  0  0  0  0  0  0  0  0  0  0  0
    3.4554   -1.7520    1.4260 H   0  0  0  0  0  0  0  0  0  0  0  0
    2.9990   -3.7130   -2.7293 H   0  0  0  0  0  0  0  0  0  0  0  0
    2.6162   -2.1453   -3.4589 H   0  0  0  0  0  0  0  0  0  0  0  0
    4.2885   -2.6101   -3.2000 H   0  0  0  0  0  0  0  0  0  0  0  0
   -2.9479   -4.1402   -2.4927 H   0  0  0  0  0  0  0  0  0  0  0  0
   -2.1655   -2.5758   -2.7728 H   0  0  0  0  0  0  0  0  0  0  0  0
   -1.2114   -4.0691   -2.7459 H   0  0  0  0  0  0  0  0  0  0  0  0
    1.1633   -0.8831   -2.5243 H   0  0  0  0  0  0  0  0  0  0  0  0
    5.1829   -2.4362    2.9877 H   0  0  0  0  0  0  0  0  0  0  0  0
    4.5132   -3.8465    2.1593 H   0  0  0  0  0  0  0  0  0  0  0  0
    6.1108   -3.2258    1.7067 H   0  0  0  0  0  0  0  0  0  0  0  0
   -3.0629   -0.8094    0.0109 H   0  0  0  0  0  0  0  0  0  0  0  0
    5.9464   -3.6238   -0.4413 H   0  0  0  0  0  0  0  0  0  0  0  0
    6.3298   -0.8550    0.9214 H   0  0  0  0  0  0  0  0  0  0  0  0
   -5.4140   -2.1446   -1.4663 H   0  0  0  0  0  0  0  0  0  0  0  0
    3.6475    0.5552    0.5298 H   0  0  0  0  0  0  0  0  0  0  0  0
   -4.6158   -1.8933    1.9969 H   0  0  0  0  0  0  0  0  0  0  0  0
   -4.2526   -3.2956    2.9956 H   0  0  0  0  0  0  0  0  0  0  0  0
   -5.1330   -3.5410    1.4824 H   0  0  0  0  0  0  0  0  0  0  0  0
   -0.0913   -2.5580    3.5882 H   0  0  0  0  0  0  0  0  0  0  0  0
    1.4085   -2.4196    2.6121 H   0  0  0  0  0  0  0  0  0  0  0  0
    0.9556   -3.9742    3.3284 H   0  0  0  0  0  0  0  0  0  0  0  0
   -6.0477    2.1203   -2.4777 H   0  0  0  0  0  0  0  0  0  0  0  0
   -6.8762    1.9585   -0.9262 H   0  0  0  0  0  0  0  0  0  0  0  0
   -5.5951    3.1591   -1.1060 H   0  0  0  0  0  0  0  0  0  0  0  0
    6.5332    1.5910    0.9396 H   0  0  0  0  0  0  0  0  0  0  0  0
   -3.6908    2.5683    3.9245 H   0  0  0  0  0  0  0  0  0  0  0  0
   -4.9271    1.8273    2.9293 H   0  0  0  0  0  0  0  0  0  0  0  0
   -3.6423    0.8136    3.6177 H   0  0  0  0  0  0  0  0  0  0  0  0
    1.4922    2.8028   -2.1937 H   0  0  0  0  0  0  0  0  0  0  0  0
    3.0107    3.0673    1.2018 H   0  0  0  0  0  0  0  0  0  0  0  0
    6.2358    4.3105   -1.1414 H   0  0  0  0  0  0  0  0  0  0  0  0
    7.0383    3.8412    0.3629 H   0  0  0  0  0  0  0  0  0  0  0  0
    5.6159    4.8906    0.4192 H   0  0  0  0  0  0  0  0  0  0  0  0
   -0.3288    3.0730    3.3178 H   0  0  0  0  0  0  0  0  0  0  0  0
  1 16  1  0  0  0  0
  1 28  1  0  0  0  0
  2 15  1  0  0  0  0
  2 68  1  0  0  0  0
  3 19  1  0  0  0  0
  3 73  1  0  0  0  0
  4 21  1  0  0  0  0
  4 31  1  0  0  0  0
  5 29  1  0  0  0  0
  5 32  1  0  0  0  0
  6 32  1  0  0  0  0
  6 36  1  0  0  0  0
  7 28  2  0  0  0  0
  8 35  2  0  0  0  0
  9 42  1  0  0  0  0
  9 95  1  0  0  0  0
 10 44  2  0  0  0  0
 11 45  2  0  0  0  0
 12 49  2  0  0  0  0
 13 46  1  0  0  0  0
 13 49  1  0  0  0  0
 13 91  1  0  0  0  0
 14 15  1  0  0  0  0
 14 16  1  0  0  0  0
 14 20  1  0  0  0  0
 14 51  1  0  0  0  0
 15 17  1  0  0  0  0
 15 52  1  0  0  0  0
 16 18  1  0  0  0  0
 16 53  1  0  0  0  0
 17 19  1  0  0  0  0
 17 23  1  0  0  0  0
 17 54  1  0  0  0  0
 18 21  1  0  0  0  0
 18 24  1  0  0  0  0
 18 55  1  0  0  0  0
 19 22  1  0  0  0  0
 19 56  1  0  0  0  0
 20 57  1  0  0  0  0
 20 58  1  0  0  0  0
 20 59  1  0  0  0  0
 21 26  1  0  0  0  0
 21 60  1  0  0  0  0
 22 25  1  0  0  0  0
 22 27  1  0  0  0  0
 22 61  1  0  0  0  0
 23 62  1  0  0  0  0
 23 63  1  0  0  0  0
 23 64  1  0  0  0  0
 24 65  1  0  0  0  0
 24 66  1  0  0  0  0
 24 67  1  0  0  0  0
 25 69  1  0  0  0  0
 25 70  1  0  0  0  0
 25 71  1  0  0  0  0
 26 29  2  0  0  0  0
 26 72  1  0  0  0  0
 27 30  2  0  0  0  0
 27 74  1  0  0  0  0
 28 33  1  0  0  0  0
 29 75  1  0  0  0  0
 30 39  1  0  0  0  0
 30 76  1  0  0  0  0
 31 77  1  0  0  0  0
 31 78  1  0  0  0  0
 31 79  1  0  0  0  0
 32 35  1  0  0  0  0
 32 38  1  0  0  0  0
 33 80  1  0  0  0  0
 33 81  1  0  0  0  0
 33 82  1  0  0  0  0
 34 35  1  0  0  0  0
 34 36  2  0  0  0  0
 34 37  1  0  0  0  0
 36 40  1  0  0  0  0
 37 41  2  0  0  0  0
 37 44  1  0  0  0  0
 38 83  1  0  0  0  0
 38 84  1  0  0  0  0
 38 85  1  0  0  0  0
 39 43  2  0  0  0  0
 39 86  1  0  0  0  0
 40 42  2  0  0  0  0
 40 47  1  0  0  0  0
 41 42  1  0  0  0  0
 41 45  1  0  0  0  0
 43 49  1  0  0  0  0
 43 50  1  0  0  0  0
 44 48  1  0  0  0  0
 45 46  1  0  0  0  0
 46 48  2  0  0  0  0
 47 87  1  0  0  0  0
 47 88  1  0  0  0  0
 47 89  1  0  0  0  0
 48 90  1  0  0  0  0
 50 92  1  0  0  0  0
 50 93  1  0  0  0  0
 50 94  1  0  0  0  0
M  END
> <PUBCHEM_COMPOUND_CID>
6436726

> <PUBCHEM_CONFORMER_RMSD>
1

> <PUBCHEM_CONFORMER_DIVERSEORDER>
1

> <PUBCHEM_MMFF94_PARTIAL_CHARGES>
52
1 -0.43
10 -0.57
11 -0.57
12 -0.57
13 -0.54
15 0.28
16 0.28
19 0.28
2 -0.68
21 0.42
22 0.14
26 -0.29
27 -0.29
28 0.66
29 -0.07
3 -0.68
30 -0.15
31 0.28
32 0.62
33 0.06
34 0.09
35 0.42
36 0.08
37 0.09
39 -0.15
4 -0.56
40 -0.14
41 0.09
42 0.08
43 -0.12
44 0.47
45 0.47
46 0.12
47 0.14
48 -0.14
49 0.62
5 -0.36
50 0.14
6 -0.36
68 0.4
7 -0.57
72 0.15
73 0.4
74 0.15
75 0.15
76 0.15
8 -0.57
86 0.15
9 -0.53
90 0.15
91 0.37
95 0.45

> <PUBCHEM_EFFECTIVE_ROTOR_COUNT>
5.2

> <PUBCHEM_PHARMACOPHORE_FEATURES>
17
1 10 acceptor
1 11 acceptor
1 12 acceptor
1 13 donor
1 2 acceptor
1 2 donor
1 3 acceptor
1 3 donor
1 4 acceptor
1 5 acceptor
1 6 acceptor
1 7 acceptor
1 8 acceptor
1 9 donor
5 6 32 34 35 36 rings
6 34 36 37 40 41 42 rings
6 37 41 44 45 46 48 rings

> <PUBCHEM_HEAVY_ATOM_COUNT>
50

> <PUBCHEM_ATOM_DEF_STEREO_COUNT>
9

> <PUBCHEM_ATOM_UDEF_STEREO_COUNT>
0

> <PUBCHEM_BOND_DEF_STEREO_COUNT>
3

> <PUBCHEM_BOND_UDEF_STEREO_COUNT>
0

> <PUBCHEM_ISOTOPIC_ATOM_COUNT>
0

> <PUBCHEM_COMPONENT_COUNT>
1

> <PUBCHEM_CACTVS_TAUTO_COUNT>
24

> <PUBCHEM_CONFORMER_ID>
0062377600000001

> <PUBCHEM_MMFF94_ENERGY>
187.5007

> <PUBCHEM_FEATURE_SELFOVERLAP>
86.447

> <PUBCHEM_SHAPE_FINGERPRINT>
11513181 2 18198053871055242630
15001296 14 18334848403470447650
150020 26 16967748935553594514
15264996 151 18261386793102739121
15970540 1 18050837824039781258
15975801 100 17756430362052145702
16112460 7 18340778052182923072
19311894 1 16398596018839436543
20764821 26 18270697393173859330
21792938 131 17915440900600771655
3493558 16 18342176669913165166
373842 8 18412260662169921510
392239 28 18196931076467328294
469060 322 18049726217577974876
50150288 127 16987465051792773465
50677037 204 17982171119756870578
5265222 85 17833554878726872413

> <PUBCHEM_SHAPE_MULTIPOLES>
953.56
12.21
7.28
2.81
6.05
2.34
-0.95
-3.06
0.85
3.48
-0.69
-1.58
-0.03
-0.26

> <PUBCHEM_SHAPE_SELFOVERLAP>
2032.865

> <PUBCHEM_SHAPE_VOLUME>
527

> <PUBCHEM_COORDINATE_TYPE>
2
5
10

$$$$
