136138
  -OEChem-07272518213D

 12 12  0     0  0  0  0  0  0999 V2000
   -0.1197   -1.7484    0.0001 Si  0  0  0  0  0  0  0  0  0  0  0  0
    1.3991   -0.7235    0.0000 C   0  0  0  0  0  0  0  0  0  0  0  0
   -1.4722   -0.4864   -0.0001 C   0  0  0  0  0  0  0  0  0  0  0  0
    1.2774    0.7168    0.0000 C   0  0  0  0  0  0  0  0  0  0  0  0
   -1.2091    0.8307    0.0000 C   0  0  0  0  0  0  0  0  0  0  0  0
    0.1245    1.4107    0.0000 C   0  0  0  0  0  0  0  0  0  0  0  0
   -0.1900   -2.5649    1.2383 H   0  0  0  0  0  0  0  0  0  0  0  0
    2.3756   -1.1899    0.0013 H   0  0  0  0  0  0  0  0  0  0  0  0
   -2.4923   -0.8526    0.0001 H   0  0  0  0  0  0  0  0  0  0  0  0
    2.2164    1.2648    0.0000 H   0  0  0  0  0  0  0  0  0  0  0  0
   -2.0352    1.5367    0.0002 H   0  0  0  0  0  0  0  0  0  0  0  0
    0.1645    2.4970    0.0001 H   0  0  0  0  0  0  0  0  0  0  0  0
  1  2  2  0  0  0  0
  1  3  1  0  0  0  0
  1  7  1  0  0  0  0
  2  4  1  0  0  0  0
  2  8  1  0  0  0  0
  3  5  2  0  0  0  0
  3  9  1  0  0  0  0
  4  6  2  0  0  0  0
  4 10  1  0  0  0  0
  5  6  1  0  0  0  0
  5 11  1  0  0  0  0
  6 12  1  0  0  0  0
M  END
> <PUBCHEM_COMPOUND_CID>
136138

> <PUBCHEM_CONFORMER_RMSD>
0.4

> <PUBCHEM_CONFORMER_DIVERSEORDER>
1

> <PUBCHEM_EFFECTIVE_ROTOR_COUNT>
0

> <PUBCHEM_PHARMACOPHORE_FEATURES>
1
6 1 2 3 4 5 6 rings

> <PUBCHEM_HEAVY_ATOM_COUNT>
6

> <PUBCHEM_ATOM_DEF_STEREO_COUNT>
0

> <PUBCHEM_ATOM_UDEF_STEREO_COUNT>
0

> <PUBCHEM_BOND_DEF_STEREO_COUNT>
0

> <PUBCHEM_BOND_UDEF_STEREO_COUNT>
0

> <PUBCHEM_ISOTOPIC_ATOM_COUNT>
0

> <PUBCHEM_COMPONENT_COUNT>
1

> <PUBCHEM_CACTVS_TAUTO_COUNT>
1

> <PUBCHEM_CONFORMER_ID>
000213CA00000001

> <PUBCHEM_MMFF94_ENERGY>
11.4864

> <PUBCHEM_FEATURE_SELFOVERLAP>
5.074

> <PUBCHEM_SHAPE_FINGERPRINT>
16714656 1 18411149030065217454
18185500 45 18050281466676133367
20096714 4 18410857654893561715
21040471 1 18338517576577296385
23552423 10 16677269465322920886
29004967 10 17974583398254655417

> <PUBCHEM_SHAPE_MULTIPOLES>
141.69
2.07
1.76
0.71
0.46
0.02
0
-0.04
0
-0.08
0
0.14
0
0

> <PUBCHEM_SHAPE_SELFOVERLAP>
264.848

> <PUBCHEM_SHAPE_VOLUME>
90.1

> <PUBCHEM_COORDINATE_TYPE>
2
5
10

$$$$
