5284616
  -OEChem-07162411282D

 69 72  0  0  1  0            999 V2000
    3.8618   -2.2988   -0.1812 C   0  0  0  0  0  0  0  0  0  0  0  0
    4.5503   -3.3136   -0.2387 O   0  0  0  0  0  0  0  0  0  0  0  0
    3.8441   -1.3804   -1.3181 C   0  0  1  0  0  0  0  0  0  0  0  0
    0.9396   -0.5085   -2.8412 O   0  0  0  0  0  0  0  0  0  0  0  0
    2.6802   -0.5300   -1.4705 N   0  0  0  0  0  0  0  0  0  0  0  0
    1.4819   -0.9808   -1.8435 C   0  0  0  0  0  0  0  0  0  0  0  0
    3.1780   -2.0532    0.8338 O   0  0  0  0  0  0  0  0  0  0  0  0
    3.0313   -2.6172    2.0493 C   0  0  1  0  0  0  0  0  0  0  0  0
    2.6639   -1.4055    2.9504 C   0  0  0  0  0  0  0  0  0  0  0  0
    2.1254   -3.9024    2.1447 C   0  0  2  0  0  0  0  0  0  0  0  0
    1.8840   -4.4055    3.5893 C   0  0  0  0  0  0  0  0  0  0  0  0
    1.5509   -0.4818    2.7611 C   0  0  0  0  0  0  0  0  0  0  0  0
    5.2624   -0.7037   -1.2942 C   0  0  0  0  0  0  0  0  0  0  0  0
    5.2629    0.7577   -1.7980 C   0  0  0  0  0  0  0  0  0  0  0  0
    2.7490    0.8915   -1.3229 C   0  0  0  0  0  0  0  0  0  0  0  0
    4.1365    1.5484   -1.0978 C   0  0  0  0  0  0  0  0  0  0  0  0
    2.6813   -5.1284    1.3589 C   0  0  0  0  0  0  0  0  0  0  0  0
    1.7915   -6.2961    0.8604 C   0  0  1  0  0  0  0  0  0  0  0  0
    2.5278   -7.0397   -0.2932 C   0  0  0  0  0  0  0  0  0  0  0  0
    1.3570   -7.2840    1.9890 C   0  0  0  0  0  0  0  0  0  0  0  0
    0.5330   -8.4971    1.4793 C   0  0  0  0  0  0  0  0  0  0  0  0
    1.7200   -8.2596   -0.8546 C   0  0  2  0  0  0  0  0  0  0  0  0
    1.2768   -9.2001    0.3114 C   0  0  2  0  0  0  0  0  0  0  0  0
   -1.1324   -0.5772   -0.9299 O   0  0  0  0  0  0  0  0  0  0  0  0
    0.7439   -2.0003   -1.3031 C   0  0  0  0  0  0  0  0  0  0  0  0
   -0.7085   -1.9657   -1.0635 C   0  0  1  0  0  0  0  0  0  0  0  0
    1.7540    0.9282    2.4089 C   0  0  2  0  0  0  0  0  0  0  0  0
    2.6663    1.6916    3.4051 C   0  0  0  0  0  0  0  0  0  0  0  0
   -2.5360   -0.3162   -0.7040 C   0  0  1  0  0  0  0  0  0  0  0  0
   -2.9863   -0.9554    0.6257 C   0  0  0  0  0  0  0  0  0  0  0  0
   -1.2171   -2.7685    0.2005 C   0  0  1  0  0  0  0  0  0  0  0  0
   -2.6707   -2.4598    0.6225 C   0  0  0  0  0  0  0  0  0  0  0  0
   -2.8013    1.1601   -0.4430 C   0  0  0  0  0  0  0  0  0  0  0  0
    0.5933    1.8229    2.2602 C   0  0  0  0  0  0  0  0  0  0  0  0
    0.3503    2.9624    1.5666 C   0  0  0  0  0  0  0  0  0  0  0  0
    1.3708    3.4647    0.6617 C   0  0  0  0  0  0  0  0  0  0  0  0
   -2.8125    2.1733   -1.6193 C   0  0  1  0  0  0  0  0  0  0  0  0
   -4.4494    3.6867   -0.2724 C   0  0  0  0  0  0  0  0  0  0  0  0
   -3.6265    3.3953   -1.4603 C   0  0  0  0  0  0  0  0  0  0  0  0
   -0.9252    3.6833    1.7863 C   0  0  2  0  0  0  0  0  0  0  0  0
   -1.2584    5.0932    1.1443 C   0  0  1  0  0  0  0  0  0  0  0  0
   -1.2638    4.9340   -0.2827 O   0  0  0  0  0  0  0  0  0  0  0  0
   -3.5307    4.2673   -2.4854 C   0  0  0  0  0  0  0  0  0  0  0  0
   -3.9490    5.5408   -2.4351 C   0  0  0  0  0  0  0  0  0  0  0  0
   -0.4434    5.8812   -0.9801 C   0  0  0  0  0  0  0  0  0  0  0  0
   -2.4549    5.8541    1.5740 C   0  0  0  0  0  0  0  0  0  0  0  0
   -2.7418    7.2039    1.0611 C   0  0  1  0  0  0  0  0  0  0  0  0
   -4.2251    7.6739    0.9901 C   0  0  0  0  0  0  0  0  0  0  0  0
   -4.6824    8.5148   -1.4652 C   0  0  0  0  0  0  0  0  0  0  0  0
   -4.4048    7.3083   -1.9567 C   0  0  0  0  0  0  0  0  0  0  0  0
   -4.2711    6.6430   -3.0991 C   0  0  0  0  0  0  0  0  0  0  0  0
   -4.6513    8.7760   -0.0327 C   0  0  1  0  0  0  0  0  0  0  0  0
   -3.2273    5.3554    2.3858 O   0  0  0  0  0  0  0  0  0  0  0  0
   -1.0476    3.8620    3.1991 O   0  0  0  0  0  0  0  0  0  0  0  0
   -1.9179    8.2674    1.8152 C   0  0  0  0  0  0  0  0  0  0  0  0
   -6.0497    9.2437    0.3823 C   0  0  0  0  0  0  0  0  0  0  0  0
   -1.4104    2.4656   -1.7568 O   0  0  0  0  0  0  0  0  0  0  0  0
   -0.9272    2.3479   -3.0978 C   0  0  0  0  0  0  0  0  0  0  0  0
    0.4343   -0.9492    2.9331 O   0  0  0  0  0  0  0  0  0  0  0  0
   -1.2873   -2.4417   -2.2834 O   0  0  0  0  0  0  0  0  0  0  0  0
    1.3202   -3.0691   -1.1516 O   0  0  0  0  0  0  0  0  0  0  0  0
    2.4914   -9.0034   -1.8018 O   0  0  0  0  0  0  0  0  0  0  0  0
    0.4109  -10.2145   -0.1808 O   0  0  0  0  0  0  0  0  0  0  0  0
   -1.3182   -4.2953    0.0750 C   0  0  0  0  0  0  0  0  0  0  0  0
    2.0436   -8.7315   -3.1320 C   0  0  0  0  0  0  0  0  0  0  0  0
    0.9056   -5.8566    0.4146 H   0  0  0  0  0  0  0  0  0  0  0  0
    4.0313   -2.8733    2.4208 H   0  0  0  0  0  0  0  0  0  0  0  0
   -3.1621   -0.6557   -1.5350 H   0  0  0  0  0  0  0  0  0  0  0  0
    3.8848   -1.9787   -2.2350 H   0  0  0  0  0  0  0  0  0  0  0  0
  1  3  1  0  0  0  0
  1  7  1  0  0  0  0
  1  2  2  0  0  0  0
  3 13  1  0  0  0  0
  3  5  1  0  0  0  0
  3 69  1  0  0  0  0
  4  6  2  0  0  0  0
  5  6  1  0  0  0  0
  5 15  1  0  0  0  0
  6 25  1  0  0  0  0
  7  8  1  0  0  0  0
  8 10  1  0  0  0  0
  8  9  1  0  0  0  0
  8 67  1  0  0  0  0
  9 12  1  0  0  0  0
 10 17  1  0  0  0  0
 10 11  1  0  0  0  0
 12 27  1  0  0  0  0
 12 59  2  0  0  0  0
 13 14  1  0  0  0  0
 14 16  1  0  0  0  0
 15 16  1  0  0  0  0
 17 18  1  0  0  0  0
 18 20  1  0  0  0  0
 18 19  1  0  0  0  0
 18 66  1  0  0  0  0
 19 22  1  0  0  0  0
 20 21  1  0  0  0  0
 21 23  1  0  0  0  0
 22 23  1  0  0  0  0
 22 62  1  0  0  0  0
 23 63  1  0  0  0  0
 24 26  1  0  0  0  0
 24 29  1  0  0  0  0
 25 26  1  0  0  0  0
 25 61  2  0  0  0  0
 26 31  1  0  0  0  0
 26 60  1  0  0  0  0
 27 34  1  0  0  0  0
 27 28  1  0  0  0  0
 29 30  1  0  0  0  0
 29 33  1  0  0  0  0
 29 68  1  0  0  0  0
 30 32  1  0  0  0  0
 31 32  1  0  0  0  0
 31 64  1  0  0  0  0
 33 37  1  0  0  0  0
 34 35  2  0  0  0  0
 35 40  1  0  0  0  0
 35 36  1  0  0  0  0
 37 39  1  0  0  0  0
 37 57  1  0  0  0  0
 38 39  1  0  0  0  0
 39 43  2  0  0  0  0
 40 41  1  0  0  0  0
 40 54  1  0  0  0  0
 41 46  1  0  0  0  0
 41 42  1  0  0  0  0
 42 45  1  0  0  0  0
 43 44  1  0  0  0  0
 44 51  2  0  0  0  0
 46 47  1  0  0  0  0
 46 53  2  0  0  0  0
 47 48  1  0  0  0  0
 47 55  1  0  0  0  0
 48 52  1  0  0  0  0
 49 50  2  0  0  0  0
 49 52  1  0  0  0  0
 50 51  1  0  0  0  0
 52 56  1  0  0  0  0
 57 58  1  0  0  0  0
 62 65  1  0  0  0  0
M  END
> <PUBCHEM_COMPOUND_CID>
5284616

> <PUBCHEM_COMPOUND_CANONICALIZED>
1

> <PUBCHEM_CACTVS_COMPLEXITY>
1760

> <PUBCHEM_CACTVS_HBOND_ACCEPTOR>
13

> <PUBCHEM_CACTVS_HBOND_DONOR>
3

> <PUBCHEM_CACTVS_ROTATABLE_BOND>
6

> <PUBCHEM_CACTVS_SUBSKEYS>
AAADcfB+PAAAAAAAAAAAAAAAAAAAAAAAAAA8SIAAAAAAAAAAAAAAHgAACAAADTzhgAYCCAMABgCIAqHSGAIAAAAgAAAICAHIAAgbFBYAoSQHUAAH5gCfsAOY6PSOAAAAAAAAAABAAAIAAACAAAAAAAAAAA==

> <PUBCHEM_IUPAC_OPENEYE_NAME>
(1R,9S,12S,15R,16E,18R,19R,21R,23S,24E,26E,28E,30S,32S,35R)-1,18-dihydroxy-12-[(1R)-2-[(1S,3R,4R)-4-hydroxy-3-methoxy-cyclohexyl]-1-methyl-ethyl]-19,30-dimethoxy-15,17,21,23,29,35-hexamethyl-11,36-dioxa-4-azatricyclo[30.3.1.04,9]hexatriaconta-16,24,26,28-tetraene-2,3,10,14,20-pentone

> <PUBCHEM_IUPAC_CAS_NAME>
(1R,9S,12S,15R,16E,18R,19R,21R,23S,24E,26E,28E,30S,32S,35R)-1,18-dihydroxy-12-[(2R)-1-[(1S,3R,4R)-4-hydroxy-3-methoxycyclohexyl]propan-2-yl]-19,30-dimethoxy-15,17,21,23,29,35-hexamethyl-11,36-dioxa-4-azatricyclo[30.3.1.04,9]hexatriaconta-16,24,26,28-tetraene-2,3,10,14,20-pentone

> <PUBCHEM_IUPAC_NAME_MARKUP>
(1<I>R</I>,9<I>S</I>,12<I>S</I>,15<I>R</I>,16<I>E</I>,18<I>R</I>,19<I>R</I>,21<I>R</I>,23<I>S</I>,24<I>E</I>,26<I>E</I>,28<I>E</I>,30<I>S</I>,32<I>S</I>,35<I>R</I>)-1,18-dihydroxy-12-[(2<I>R</I>)-1-[(1<I>S</I>,3<I>R</I>,4<I>R</I>)-4-hydroxy-3-methoxycyclohexyl]propan-2-yl]-19,30-dimethoxy-15,17,21,23,29,35-hexamethyl-11,36-dioxa-4-azatricyclo[30.3.1.0<SUP>4,9</SUP>]hexatriaconta-16,24,26,28-tetraene-2,3,10,14,20-pentone

> <PUBCHEM_IUPAC_NAME>
(1R,9S,12S,15R,16E,18R,19R,21R,23S,24E,26E,28E,30S,32S,35R)-1,18-dihydroxy-12-[(2R)-1-[(1S,3R,4R)-4-hydroxy-3-methoxycyclohexyl]propan-2-yl]-19,30-dimethoxy-15,17,21,23,29,35-hexamethyl-11,36-dioxa-4-azatricyclo[30.3.1.04,9]hexatriaconta-16,24,26,28-tetraene-2,3,10,14,20-pentone

> <PUBCHEM_IUPAC_SYSTEMATIC_NAME>
(1R,9S,12S,15R,16E,18R,19R,21R,23S,24E,26E,28E,30S,32S,35R)-19,30-dimethoxy-12-[(2R)-1-[(1S,3R,4R)-3-methoxy-4-oxidanyl-cyclohexyl]propan-2-yl]-15,17,21,23,29,35-hexamethyl-1,18-bis(oxidanyl)-11,36-dioxa-4-azatricyclo[30.3.1.04,9]hexatriaconta-16,24,26,28-tetraene-2,3,10,14,20-pentone

> <PUBCHEM_IUPAC_TRADITIONAL_NAME>
(1R,9S,12S,15R,16E,18R,19R,21R,23S,24E,26E,28E,30S,32S,35R)-1,18-dihydroxy-12-[(1R)-2-[(1S,3R,4R)-4-hydroxy-3-methoxy-cyclohexyl]-1-methyl-ethyl]-19,30-dimethoxy-15,17,21,23,29,35-hexamethyl-11,36-dioxa-4-azatricyclo[30.3.1.04,9]hexatriaconta-16,24,26,28-tetraene-2,3,10,14,20-pentone

> <PUBCHEM_IUPAC_INCHI>
InChI=1S/C51H79NO13/c1-30-16-12-11-13-17-31(2)42(61-8)28-38-21-19-36(7)51(60,65-38)48(57)49(58)52-23-15-14-18-39(52)50(59)64-43(33(4)26-37-20-22-40(53)44(27-37)62-9)29-41(54)32(3)25-35(6)46(56)47(63-10)45(55)34(5)24-30/h11-13,16-17,25,30,32-34,36-40,42-44,46-47,53,56,60H,14-15,18-24,26-29H2,1-10H3/b13-11+,16-12+,31-17+,35-25+/t30-,32-,33-,34-,36-,37+,38+,39+,40-,42+,43+,44-,46-,47+,51-/m1/s1

> <PUBCHEM_IUPAC_INCHIKEY>
QFJCIRLUMZQUOT-HPLJOQBZSA-N

> <PUBCHEM_XLOGP3_AA>
6

> <PUBCHEM_EXACT_MASS>
913.55514157

> <PUBCHEM_MOLECULAR_FORMULA>
C51H79NO13

> <PUBCHEM_MOLECULAR_WEIGHT>
914.2

> <PUBCHEM_REFERENCE_STANDARDIZATION>
Bypass - this structure was created from CID 5284616

> <PUBCHEM_OPENEYE_CAN_SMILES>
CC1CCC2CC(C(=CC=CC=CC(CC(C(=O)C(C(C(=CC(C(=O)CC(OC(=O)C3CCCCN3C(=O)C(=O)C1(O2)O)C(C)CC4CCC(C(C4)OC)O)C)C)O)OC)C)C)C)OC

> <PUBCHEM_OPENEYE_ISO_SMILES>
C[C@@H]1CC[C@H]2C[C@@H](/C(=C/C=C/C=C/[C@H](C[C@H](C(=O)[C@@H]([C@@H](/C(=C/[C@H](C(=O)C[C@H](OC(=O)[C@@H]3CCCCN3C(=O)C(=O)[C@@]1(O2)O)[C@H](C)C[C@@H]4CC[C@H]([C@@H](C4)OC)O)C)/C)O)OC)C)C)/C)OC

> <PUBCHEM_CACTVS_TPSA>
195

> <PUBCHEM_MONOISOTOPIC_WEIGHT>
913.55514157

> <PUBCHEM_TOTAL_CHARGE>
0

> <PUBCHEM_HEAVY_ATOM_COUNT>
65

> <PUBCHEM_ATOM_DEF_STEREO_COUNT>
15

> <PUBCHEM_ATOM_UDEF_STEREO_COUNT>
0

> <PUBCHEM_BOND_DEF_STEREO_COUNT>
4

> <PUBCHEM_BOND_UDEF_STEREO_COUNT>
0

> <PUBCHEM_ISOTOPIC_ATOM_COUNT>
0

> <PUBCHEM_COMPONENT_COUNT>
1

> <PUBCHEM_CACTVS_TAUTO_COUNT>
-1

> <PUBCHEM_COORDINATE_TYPE>
1
5
255

> <PUBCHEM_BONDANNOTATIONS>
19  1  6
49  11  6
52  12  5
15  18  6
21  2  5
22  24  5
23  78  5
26  42  6
27  86  5
29  87  6
43  45  5
28  5  6
55  60  5
59  63  6
44  9  5

$$$$
