5329
  -OEChem-06252518373D

 28 29  0     0  0  0  0  0  0999 V2000
    0.2645   -2.2031   -0.0845 S   0  0  0  0  0  0  0  0  0  0  0  0
   -2.6416    0.9657   -0.9788 O   0  0  0  0  0  0  0  0  0  0  0  0
    0.9463   -3.2030    0.7288 O   0  0  0  0  0  0  0  0  0  0  0  0
   -0.0563   -2.5245   -1.4698 O   0  0  0  0  0  0  0  0  0  0  0  0
   -1.1693   -1.7273    0.7438 N   0  0  0  0  0  0  0  0  0  0  0  0
   -1.9278   -0.2265   -0.9777 N   0  0  0  0  0  0  0  0  0  0  0  0
    3.5485    2.7532    0.0086 N   0  0  0  0  0  0  0  0  0  0  0  0
    1.2286   -0.7477   -0.0572 C   0  0  0  0  0  0  0  0  0  0  0  0
    2.1047   -0.5114    1.0022 C   0  0  0  0  0  0  0  0  0  0  0  0
    1.1228    0.1788   -1.0946 C   0  0  0  0  0  0  0  0  0  0  0  0
   -1.8451   -0.5383    0.2987 C   0  0  0  0  0  0  0  0  0  0  0  0
    2.7690    1.5778   -0.0129 C   0  0  0  0  0  0  0  0  0  0  0  0
    2.8748    0.6514    1.0243 C   0  0  0  0  0  0  0  0  0  0  0  0
    1.8930    1.3415   -1.0724 C   0  0  0  0  0  0  0  0  0  0  0  0
   -2.4539    0.3608    1.1589 C   0  0  0  0  0  0  0  0  0  0  0  0
   -2.9493    1.3051    0.2991 C   0  0  0  0  0  0  0  0  0  0  0  0
   -3.7089    2.5476    0.4835 C   0  0  0  0  0  0  0  0  0  0  0  0
   -1.2084   -1.9185    1.7534 H   0  0  0  0  0  0  0  0  0  0  0  0
    2.1983   -1.2149    1.8246 H   0  0  0  0  0  0  0  0  0  0  0  0
    0.4759    0.0078   -1.9492 H   0  0  0  0  0  0  0  0  0  0  0  0
    3.5527    0.8250    1.8562 H   0  0  0  0  0  0  0  0  0  0  0  0
    1.8070    2.0525   -1.8902 H   0  0  0  0  0  0  0  0  0  0  0  0
   -2.5324    0.3461    2.2358 H   0  0  0  0  0  0  0  0  0  0  0  0
   -3.9096    2.7346    1.5430 H   0  0  0  0  0  0  0  0  0  0  0  0
   -3.1506    3.4021    0.0887 H   0  0  0  0  0  0  0  0  0  0  0  0
   -4.6690    2.4929   -0.0386 H   0  0  0  0  0  0  0  0  0  0  0  0
    4.1825    2.9260    0.7773 H   0  0  0  0  0  0  0  0  0  0  0  0
    3.4707    3.4259   -0.7424 H   0  0  0  0  0  0  0  0  0  0  0  0
  1  3  2  0  0  0  0
  1  4  2  0  0  0  0
  1  5  1  0  0  0  0
  1  8  1  0  0  0  0
  2  6  1  0  0  0  0
  2 16  1  0  0  0  0
  5 11  1  0  0  0  0
  5 18  1  0  0  0  0
  6 11  2  0  0  0  0
  7 12  1  0  0  0  0
  7 27  1  0  0  0  0
  7 28  1  0  0  0  0
  8  9  2  0  0  0  0
  8 10  1  0  0  0  0
  9 13  1  0  0  0  0
  9 19  1  0  0  0  0
 10 14  2  0  0  0  0
 10 20  1  0  0  0  0
 11 15  1  0  0  0  0
 12 13  2  0  0  0  0
 12 14  1  0  0  0  0
 13 21  1  0  0  0  0
 14 22  1  0  0  0  0
 15 16  2  0  0  0  0
 15 23  1  0  0  0  0
 16 17  1  0  0  0  0
 17 24  1  0  0  0  0
 17 25  1  0  0  0  0
 17 26  1  0  0  0  0
M  END
> <PUBCHEM_COMPOUND_CID>
5329

> <PUBCHEM_CONFORMER_RMSD>
0.6

> <PUBCHEM_CONFORMER_DIVERSEORDER>
2
3
6
7
15
10
4
9
5
13
12
1
11
14
16
8

> <PUBCHEM_MMFF94_PARTIAL_CHARGES>
25
1 1.45
10 -0.15
11 0.43
12 0.1
13 -0.15
14 -0.15
15 -0.15
16 -0.04
17 0.18
18 0.42
19 0.15
2 -0.02
20 0.15
21 0.15
22 0.15
23 0.15
27 0.4
28 0.4
3 -0.65
4 -0.65
5 -0.7
6 -0.41
7 -0.9
8 -0.01
9 -0.15

> <PUBCHEM_EFFECTIVE_ROTOR_COUNT>
3

> <PUBCHEM_PHARMACOPHORE_FEATURES>
8
1 3 acceptor
1 4 acceptor
1 5 donor
1 6 acceptor
1 7 cation
1 7 donor
5 2 6 11 15 16 rings
6 8 9 10 12 13 14 rings

> <PUBCHEM_HEAVY_ATOM_COUNT>
17

> <PUBCHEM_ATOM_DEF_STEREO_COUNT>
0

> <PUBCHEM_ATOM_UDEF_STEREO_COUNT>
0

> <PUBCHEM_BOND_DEF_STEREO_COUNT>
0

> <PUBCHEM_BOND_UDEF_STEREO_COUNT>
0

> <PUBCHEM_ISOTOPIC_ATOM_COUNT>
0

> <PUBCHEM_COMPONENT_COUNT>
1

> <PUBCHEM_CACTVS_TAUTO_COUNT>
2

> <PUBCHEM_CONFORMER_ID>
000014D100000002

> <PUBCHEM_MMFF94_ENERGY>
31.8062

> <PUBCHEM_FEATURE_SELFOVERLAP>
40.615

> <PUBCHEM_SHAPE_FINGERPRINT>
10382601 240 18118127974308603176
11640471 11 18130775729582641989
12491281 212 18190459553174590472
13134695 92 17832137225806711695
13764800 53 18267600159107394441
14817 1 13229021964915856855
15775835 57 18337391646590131392
16945 1 18189325780234095434
18522851 12 8862664680394396769
18981168 100 18196960832032241467
20291156 8 8935003684916038689
20510252 161 18123474044418557010
20621476 13 18048026385777317109
20671657 1 18265903462278804271
21041028 32 17472984999641269177
21524375 3 18341894120920168019
21731228 192 18335142024398406568
21947302 44 18264777549703155827
23402539 116 17766559436075265534
23419403 2 13630503078490539155
305870 269 18410575059019947210
350125 39 18337686281341713099
474 4 18338510846685647825
49207404 50 18117583780952266929
5939293 188 17906453225412510201
6992083 37 17896587574260113532
7364860 26 18126288536492861455
81228 2 17692823995909490634

> <PUBCHEM_SHAPE_MULTIPOLES>
321.15
5.57
3.18
1.22
2.34
0.93
-0.14
-5.57
1
-0.9
0.02
-0.09
0.18
-0.33

> <PUBCHEM_SHAPE_SELFOVERLAP>
671.314

> <PUBCHEM_SHAPE_VOLUME>
182.5

> <PUBCHEM_COORDINATE_TYPE>
2
5
10

$$$$
