3002190
  -OEChem-07162414012D

123127  0  0  1  0            999 V2000
   -1.7830    4.5137    1.5461 O   0  0  0  0  0  0  0  0  0  0  0  0
   -2.2619    2.3976    3.7126 O   0  0  0  0  0  0  0  0  0  0  0  0
    0.8858   -1.6384    2.2562 O   0  0  0  0  0  0  0  0  0  0  0  0
   -1.6062   -2.4627    2.6509 O   0  0  0  0  0  0  0  0  0  0  0  0
    1.6474   -3.7863    2.0164 O   0  0  0  0  0  0  0  0  0  0  0  0
   -2.5354    0.6346   -2.0475 O   0  0  0  0  0  0  0  0  0  0  0  0
   -0.0484    5.0176    0.4227 O   0  0  0  0  0  0  0  0  0  0  0  0
    1.5225   -1.2443   -0.6642 O   0  0  0  0  0  0  0  0  0  0  0  0
    1.0905    0.0631    5.3394 O   0  0  0  0  0  0  0  0  0  0  0  0
   -1.4317    3.4531    5.3763 O   0  0  0  0  0  0  0  0  0  0  0  0
   -1.2345    3.1381    0.0652 N   0  0  0  0  0  0  0  0  0  0  0  0
    2.7981   -3.3972   -2.1376 N   0  0  0  0  0  0  0  0  0  0  0  0
    2.3919    0.8041   -4.5994 N   0  0  0  0  0  0  0  0  0  0  0  0
    4.2813   -0.3587   -4.6226 N   0  0  0  0  0  0  0  0  0  0  0  0
    5.6399    0.3086   -9.2174 N   0  0  0  0  0  0  0  0  0  0  0  0
   -2.4533    2.6507    0.5668 C   0  0  1  0  0  0  0  0  0  0  0  0
   -2.8730    3.7442    1.6268 C   0  0  1  0  0  0  0  0  0  0  0  0
   -3.4758    1.9844   -0.4329 C   0  0  2  0  0  0  0  0  0  0  0  0
   -3.1438    3.2682    3.1270 C   0  0  1  0  0  0  0  0  0  0  0  0
   -1.5886   -1.1250    2.0557 C   0  0  2  0  0  0  0  0  0  0  0  0
   -3.2131   -0.6872   -0.3196 C   0  0  1  0  0  0  0  0  0  0  0  0
   -3.0563    0.6512   -0.9356 C   0  0  0  0  0  0  0  0  0  0  0  0
   -2.0213   -1.3218    0.5199 C   0  0  0  0  0  0  0  0  0  0  0  0
   -0.0846   -0.5464    2.1976 C   0  0  1  0  0  0  0  0  0  0  0  0
   -3.9596    4.7800    1.1735 C   0  0  0  0  0  0  0  0  0  0  0  0
   -0.9889    4.2675    0.6437 C   0  0  0  0  0  0  0  0  0  0  0  0
   -0.2827    2.3910   -0.6674 C   0  0  0  0  0  0  0  0  0  0  0  0
   -3.9642    2.9247   -1.5863 C   0  0  0  0  0  0  0  0  0  0  0  0
   -4.5845    2.6844    3.3272 C   0  0  0  0  0  0  0  0  0  0  0  0
    0.5288    0.5459    3.1923 C   0  0  2  0  0  0  0  0  0  0  0  0
   -2.8491   -0.5389    2.7496 C   0  0  0  0  0  0  0  0  0  0  0  0
    1.0644   -2.6886    1.2852 C   0  0  2  0  0  0  0  0  0  0  0  0
   -4.6738   -0.9987    0.1137 C   0  0  0  0  0  0  0  0  0  0  0  0
   -0.1177    2.5431   -2.1987 C   0  0  0  0  0  0  0  0  0  0  0  0
    1.9783   -2.3759    0.0689 C   0  0  1  0  0  0  0  0  0  0  0  0
    2.0572   -3.6347   -0.8525 C   0  0  2  0  0  0  0  0  0  0  0  0
    0.2212    0.5708    4.6328 C   0  0  0  0  0  0  0  0  0  0  0  0
   -0.9280    1.1835    5.3327 C   0  0  2  0  0  0  0  0  0  0  0  0
    2.5156   -4.8818   -0.0339 C   0  0  0  0  0  0  0  0  0  0  0  0
   -4.9511    2.1240    4.7210 C   0  0  0  0  0  0  0  0  0  0  0  0
   -1.5557    2.3985    4.7648 C   0  0  0  0  0  0  0  0  0  0  0  0
    0.7526    1.9966    2.6730 C   0  0  0  0  0  0  0  0  0  0  0  0
    1.7489   -5.0442    1.3124 C   0  0  1  0  0  0  0  0  0  0  0  0
    0.7553    1.3803   -2.7484 C   0  0  0  0  0  0  0  0  0  0  0  0
   -0.7797    1.2328    6.8927 C   0  0  0  0  0  0  0  0  0  0  0  0
   -1.2904   -2.8142    4.0159 C   0  0  0  0  0  0  0  0  0  0  0  0
    2.4040   -6.0786    2.2568 C   0  0  0  0  0  0  0  0  0  0  0  0
    1.1951    1.5025   -4.2237 C   0  0  0  0  0  0  0  0  0  0  0  0
    2.3616   -4.2239   -3.2990 C   0  0  0  0  0  0  0  0  0  0  0  0
    4.2713   -3.1916   -2.0660 C   0  0  0  0  0  0  0  0  0  0  0  0
    2.9585    0.9268   -5.8096 C   0  0  0  0  0  0  0  0  0  0  0  0
    3.2029   -0.0198   -3.9019 C   0  0  0  0  0  0  0  0  0  0  0  0
    4.1614    0.2268   -5.8246 C   0  0  0  0  0  0  0  0  0  0  0  0
    5.0998    0.1771   -6.8768 C   0  0  0  0  0  0  0  0  0  0  0  0
    6.4809    0.0281   -6.6102 C   0  0  0  0  0  0  0  0  0  0  0  0
    4.7105    0.3083   -8.2302 C   0  0  0  0  0  0  0  0  0  0  0  0
    7.4240    0.0392   -7.6541 C   0  0  0  0  0  0  0  0  0  0  0  0
    6.9678    0.1852   -8.9753 C   0  0  0  0  0  0  0  0  0  0  0  0
   -2.1035    1.8202    1.1684 H   0  0  0  0  0  0  0  0  0  0  0  0
   -4.3865    1.8156    0.1415 H   0  0  0  0  0  0  0  0  0  0  0  0
   -3.1504    4.1887    3.7221 H   0  0  0  0  0  0  0  0  0  0  0  0
   -3.2004   -1.3680   -1.1881 H   0  0  0  0  0  0  0  0  0  0  0  0
   -1.1595   -1.1538   -0.1256 H   0  0  0  0  0  0  0  0  0  0  0  0
   -2.1736   -2.4002    0.3980 H   0  0  0  0  0  0  0  0  0  0  0  0
    0.1524   -0.0734    1.2498 H   0  0  0  0  0  0  0  0  0  0  0  0
   -4.9197    4.2976    0.9939 H   0  0  0  0  0  0  0  0  0  0  0  0
   -4.1232    5.5483    1.9337 H   0  0  0  0  0  0  0  0  0  0  0  0
   -3.6901    5.3149    0.2584 H   0  0  0  0  0  0  0  0  0  0  0  0
    0.7157    2.5770   -0.2654 H   0  0  0  0  0  0  0  0  0  0  0  0
   -0.4436    1.3360   -0.4501 H   0  0  0  0  0  0  0  0  0  0  0  0
   -3.1324    3.3646   -2.1342 H   0  0  0  0  0  0  0  0  0  0  0  0
   -4.5848    3.7496   -1.2500 H   0  0  0  0  0  0  0  0  0  0  0  0
   -4.5864    2.3861   -2.3050 H   0  0  0  0  0  0  0  0  0  0  0  0
   -5.3270    3.4633    3.1426 H   0  0  0  0  0  0  0  0  0  0  0  0
   -4.7902    1.9094    2.5897 H   0  0  0  0  0  0  0  0  0  0  0  0
    1.6084    0.3218    3.1513 H   0  0  0  0  0  0  0  0  0  0  0  0
   -2.7928   -0.4487    3.8130 H   0  0  0  0  0  0  0  0  0  0  0  0
   -3.7128   -1.1945    2.6343 H   0  0  0  0  0  0  0  0  0  0  0  0
   -3.1348    0.4145    2.3585 H   0  0  0  0  0  0  0  0  0  0  0  0
    0.0940   -3.0236    0.9250 H   0  0  0  0  0  0  0  0  0  0  0  0
   -4.7530   -2.0161    0.5030 H   0  0  0  0  0  0  0  0  0  0  0  0
   -5.0398   -0.3157    0.8782 H   0  0  0  0  0  0  0  0  0  0  0  0
   -5.3656   -0.9232   -0.7308 H   0  0  0  0  0  0  0  0  0  0  0  0
    0.3599    3.5054   -2.3981 H   0  0  0  0  0  0  0  0  0  0  0  0
   -1.0685    2.5495   -2.7250 H   0  0  0  0  0  0  0  0  0  0  0  0
    2.9682   -2.1175    0.4516 H   0  0  0  0  0  0  0  0  0  0  0  0
    1.0144   -3.8293   -1.1314 H   0  0  0  0  0  0  0  0  0  0  0  0
   -1.6824    0.4149    5.3068 H   0  0  0  0  0  0  0  0  0  0  0  0
    2.3821   -5.7868   -0.6325 H   0  0  0  0  0  0  0  0  0  0  0  0
    3.5806   -4.7876    0.1856 H   0  0  0  0  0  0  0  0  0  0  0  0
   -4.8719    2.9055    5.4784 H   0  0  0  0  0  0  0  0  0  0  0  0
   -4.3044    1.2935    5.0040 H   0  0  0  0  0  0  0  0  0  0  0  0
   -5.9780    1.7520    4.7158 H   0  0  0  0  0  0  0  0  0  0  0  0
    1.1856    2.6712    3.4179 H   0  0  0  0  0  0  0  0  0  0  0  0
    1.4224    2.0373    1.8120 H   0  0  0  0  0  0  0  0  0  0  0  0
   -0.1876    2.4183    2.3742 H   0  0  0  0  0  0  0  0  0  0  0  0
    0.7356   -5.4034    1.1021 H   0  0  0  0  0  0  0  0  0  0  0  0
    0.2299    0.4267   -2.6315 H   0  0  0  0  0  0  0  0  0  0  0  0
    1.6495    1.3368   -2.1232 H   0  0  0  0  0  0  0  0  0  0  0  0
   -0.0040    1.9410    7.1895 H   0  0  0  0  0  0  0  0  0  0  0  0
   -1.7143    1.5172    7.3822 H   0  0  0  0  0  0  0  0  0  0  0  0
   -0.5074    0.2563    7.3075 H   0  0  0  0  0  0  0  0  0  0  0  0
   -1.4547   -3.8871    4.1099 H   0  0  0  0  0  0  0  0  0  0  0  0
   -1.9303   -2.3292    4.7509 H   0  0  0  0  0  0  0  0  0  0  0  0
   -0.2520   -2.6177    4.2765 H   0  0  0  0  0  0  0  0  0  0  0  0
    1.8275   -6.1747    3.1788 H   0  0  0  0  0  0  0  0  0  0  0  0
    2.4491   -7.0606    1.7815 H   0  0  0  0  0  0  0  0  0  0  0  0
    3.4191   -5.7758    2.5217 H   0  0  0  0  0  0  0  0  0  0  0  0
    0.3690    1.1859   -4.8671 H   0  0  0  0  0  0  0  0  0  0  0  0
    1.3749    2.5620   -4.4267 H   0  0  0  0  0  0  0  0  0  0  0  0
    0.6560   -1.5085   -1.0357 H   0  0  0  0  0  0  0  0  0  0  0  0
    1.2899   -4.1074   -3.4724 H   0  0  0  0  0  0  0  0  0  0  0  0
    2.5725   -5.2824   -3.1360 H   0  0  0  0  0  0  0  0  0  0  0  0
    2.8499   -3.9152   -4.2253 H   0  0  0  0  0  0  0  0  0  0  0  0
    4.5274   -2.4076   -1.3537 H   0  0  0  0  0  0  0  0  0  0  0  0
    4.7913   -4.1075   -1.7809 H   0  0  0  0  0  0  0  0  0  0  0  0
    4.6743   -2.8698   -3.0277 H   0  0  0  0  0  0  0  0  0  0  0  0
    2.5824    1.4835   -6.5811 H   0  0  0  0  0  0  0  0  0  0  0  0
    3.0612   -0.3468   -2.9450 H   0  0  0  0  0  0  0  0  0  0  0  0
    6.8248   -0.0706   -5.6508 H   0  0  0  0  0  0  0  0  0  0  0  0
    3.7302    0.4025   -8.5031 H   0  0  0  0  0  0  0  0  0  0  0  0
    8.4226   -0.0514   -7.4560 H   0  0  0  0  0  0  0  0  0  0  0  0
    7.6237    0.2002   -9.7569 H   0  0  0  0  0  0  0  0  0  0  0  0
  1 17  1  0  0  0  0
  1 26  1  0  0  0  0
  2 19  1  0  0  0  0
  2 41  1  0  0  0  0
 24  3  1  0  0  0  0
 32  3  1  0  0  0  0
 20  4  1  0  0  0  0
  4 46  1  0  0  0  0
  5 32  1  0  0  0  0
  5 43  1  0  0  0  0
  6 22  2  0  0  0  0
  7 26  2  0  0  0  0
 35  8  1  0  0  0  0
  8111  1  0  0  0  0
  9 37  2  0  0  0  0
 10 41  2  0  0  0  0
 11 16  1  0  0  0  0
 11 26  1  0  0  0  0
 11 27  1  0  0  0  0
 36 12  1  0  0  0  0
 12 49  1  0  0  0  0
 12 50  1  0  0  0  0
 13 48  1  0  0  0  0
 13 51  1  0  0  0  0
 13 52  1  0  0  0  0
 14 52  2  0  0  0  0
 14 53  1  0  0  0  0
 15 56  1  0  0  0  0
 15 58  2  0  0  0  0
 16 17  1  0  0  0  0
 16 18  1  0  0  0  0
 16 59  1  0  0  0  0
 17 19  1  0  0  0  0
 17 25  1  0  0  0  0
 18 22  1  0  0  0  0
 18 28  1  0  0  0  0
 18 60  1  0  0  0  0
 19 29  1  0  0  0  0
 19 61  1  0  0  0  0
 20 23  1  0  0  0  0
 20 24  1  0  0  0  0
 20 31  1  0  0  0  0
 21 22  1  0  0  0  0
 21 23  1  0  0  0  0
 21 33  1  0  0  0  0
 21 62  1  0  0  0  0
 23 63  1  0  0  0  0
 23 64  1  0  0  0  0
 24 30  1  0  0  0  0
 24 65  1  0  0  0  0
 25 66  1  0  0  0  0
 25 67  1  0  0  0  0
 25 68  1  0  0  0  0
 27 34  1  0  0  0  0
 27 69  1  0  0  0  0
 27 70  1  0  0  0  0
 28 71  1  0  0  0  0
 28 72  1  0  0  0  0
 28 73  1  0  0  0  0
 29 40  1  0  0  0  0
 29 74  1  0  0  0  0
 29 75  1  0  0  0  0
 30 37  1  0  0  0  0
 30 42  1  0  0  0  0
 30 76  1  0  0  0  0
 31 77  1  0  0  0  0
 31 78  1  0  0  0  0
 31 79  1  0  0  0  0
 32 35  1  0  0  0  0
 32 80  1  0  0  0  0
 33 81  1  0  0  0  0
 33 82  1  0  0  0  0
 33 83  1  0  0  0  0
 34 44  1  0  0  0  0
 34 84  1  0  0  0  0
 34 85  1  0  0  0  0
 35 36  1  0  0  0  0
 35 86  1  0  0  0  0
 36 39  1  0  0  0  0
 36 87  1  0  0  0  0
 37 38  1  0  0  0  0
 38 41  1  0  0  0  0
 38 45  1  0  0  0  0
 38 88  1  0  0  0  0
 39 43  1  0  0  0  0
 39 89  1  0  0  0  0
 39 90  1  0  0  0  0
 40 91  1  0  0  0  0
 40 92  1  0  0  0  0
 40 93  1  0  0  0  0
 42 94  1  0  0  0  0
 42 95  1  0  0  0  0
 42 96  1  0  0  0  0
 43 47  1  0  0  0  0
 43 97  1  0  0  0  0
 44 48  1  0  0  0  0
 44 98  1  0  0  0  0
 44 99  1  0  0  0  0
 45100  1  0  0  0  0
 45101  1  0  0  0  0
 45102  1  0  0  0  0
 46103  1  0  0  0  0
 46104  1  0  0  0  0
 46105  1  0  0  0  0
 47106  1  0  0  0  0
 47107  1  0  0  0  0
 47108  1  0  0  0  0
 48109  1  0  0  0  0
 48110  1  0  0  0  0
 49112  1  0  0  0  0
 49113  1  0  0  0  0
 49114  1  0  0  0  0
 50115  1  0  0  0  0
 50116  1  0  0  0  0
 50117  1  0  0  0  0
 51 53  2  0  0  0  0
 51118  1  0  0  0  0
 52119  1  0  0  0  0
 53 54  1  0  0  0  0
 54 55  1  0  0  0  0
 54 56  2  0  0  0  0
 55 57  2  0  0  0  0
 55120  1  0  0  0  0
 56121  1  0  0  0  0
 57 58  1  0  0  0  0
 57122  1  0  0  0  0
 58123  1  0  0  0  0
M  END
> <PUBCHEM_COMPOUND_CID>
3002190

> <PUBCHEM_COMPOUND_CANONICALIZED>
1

> <PUBCHEM_CACTVS_COMPLEXITY>
1440

> <PUBCHEM_CACTVS_HBOND_ACCEPTOR>
13

> <PUBCHEM_CACTVS_HBOND_DONOR>
1

> <PUBCHEM_CACTVS_ROTATABLE_BOND>
11

> <PUBCHEM_CACTVS_SUBSKEYS>
AAADcfB/vAAAAAAAAAAAAAAAAAAAAWLAAAAsSAAAAAAAAAAB4AAAHgAACAAADXzxngc/mJcMFgCoA7T3fACCgC0xEqAJ2CE4dJibeP7I2ZG/YAhupgLfyCfa7PzOAAAAAAAAAAAAAAAAAAAAAAAAAAAAAA==

> <PUBCHEM_IUPAC_OPENEYE_NAME>
(1S,2R,5R,7R,8R,9R,11R,13R,14R)-8-[(2S,3R,4S,6R)-4-(dimethylamino)-3-hydroxy-6-methyl-tetrahydropyran-2-yl]oxy-2-ethyl-9-methoxy-1,5,7,9,11,13-hexamethyl-15-[4-[4-(3-pyridyl)imidazol-1-yl]butyl]-3,17-dioxa-15-azabicyclo[12.3.0]heptadecane-4,6,12,16-tetrone

> <PUBCHEM_IUPAC_CAS_NAME>
(1S,2R,5R,7R,8R,9R,11R,13R,14R)-8-[[(2S,3R,4S,6R)-4-(dimethylamino)-3-hydroxy-6-methyl-2-oxanyl]oxy]-2-ethyl-9-methoxy-1,5,7,9,11,13-hexamethyl-15-[4-[4-(3-pyridinyl)-1-imidazolyl]butyl]-3,17-dioxa-15-azabicyclo[12.3.0]heptadecane-4,6,12,16-tetrone

> <PUBCHEM_IUPAC_NAME_MARKUP>
(1<I>S</I>,2<I>R</I>,5<I>R</I>,7<I>R</I>,8<I>R</I>,9<I>R</I>,11<I>R</I>,13<I>R</I>,14<I>R</I>)-8-[(2<I>S</I>,3<I>R</I>,4<I>S</I>,6<I>R</I>)-4-(dimethylamino)-3-hydroxy-6-methyloxan-2-yl]oxy-2-ethyl-9-methoxy-1,5,7,9,11,13-hexamethyl-15-[4-(4-pyridin-3-ylimidazol-1-yl)butyl]-3,17-dioxa-15-azabicyclo[12.3.0]heptadecane-4,6,12,16-tetrone

> <PUBCHEM_IUPAC_NAME>
(1S,2R,5R,7R,8R,9R,11R,13R,14R)-8-[(2S,3R,4S,6R)-4-(dimethylamino)-3-hydroxy-6-methyloxan-2-yl]oxy-2-ethyl-9-methoxy-1,5,7,9,11,13-hexamethyl-15-[4-(4-pyridin-3-ylimidazol-1-yl)butyl]-3,17-dioxa-15-azabicyclo[12.3.0]heptadecane-4,6,12,16-tetrone

> <PUBCHEM_IUPAC_SYSTEMATIC_NAME>
(1S,2R,5R,7R,8R,9R,11R,13R,14R)-8-[(2S,3R,4S,6R)-4-(dimethylamino)-6-methyl-3-oxidanyl-oxan-2-yl]oxy-2-ethyl-9-methoxy-1,5,7,9,11,13-hexamethyl-15-[4-(4-pyridin-3-ylimidazol-1-yl)butyl]-3,17-dioxa-15-azabicyclo[12.3.0]heptadecane-4,6,12,16-tetrone

> <PUBCHEM_IUPAC_TRADITIONAL_NAME>
(1S,2R,5R,7R,8R,9R,11R,13R,14R)-8-[(2S,3R,4S,6R)-4-(dimethylamino)-3-hydroxy-6-methyl-tetrahydropyran-2-yl]oxy-2-ethyl-9-methoxy-1,5,7,9,11,13-hexamethyl-15-[4-[4-(3-pyridyl)imidazol-1-yl]butyl]-3,17-dioxa-15-azabicyclo[12.3.0]heptadecane-4,6,12,16-diquinone

> <PUBCHEM_IUPAC_INCHI>
InChI=1S/C43H65N5O10/c1-12-33-43(8)37(48(41(53)58-43)19-14-13-18-47-23-31(45-24-47)30-16-15-17-44-22-30)27(4)34(49)25(2)21-42(7,54-11)38(28(5)35(50)29(6)39(52)56-33)57-40-36(51)32(46(9)10)20-26(3)55-40/h15-17,22-29,32-33,36-38,40,51H,12-14,18-21H2,1-11H3/t25-,26-,27+,28+,29-,32+,33-,36-,37-,38-,40+,42-,43-/m1/s1

> <PUBCHEM_IUPAC_INCHIKEY>
LJVAJPDWBABPEJ-PNUFFHFMSA-N

> <PUBCHEM_XLOGP3_AA>
4.2

> <PUBCHEM_EXACT_MASS>
811.47314329

> <PUBCHEM_MOLECULAR_FORMULA>
C43H65N5O10

> <PUBCHEM_MOLECULAR_WEIGHT>
812.0

> <PUBCHEM_OPENEYE_CAN_SMILES>
CCC1C2(C(C(C(=O)C(CC(C(C(C(=O)C(C(=O)O1)C)C)OC3C(C(CC(O3)C)N(C)C)O)(C)OC)C)C)N(C(=O)O2)CCCCN4C=C(N=C4)C5=CN=CC=C5)C

> <PUBCHEM_OPENEYE_ISO_SMILES>
CC[C@@H]1[C@@]2([C@@H]([C@H](C(=O)[C@@H](C[C@@]([C@@H]([C@H](C(=O)[C@H](C(=O)O1)C)C)O[C@H]3[C@@H]([C@H](C[C@H](O3)C)N(C)C)O)(C)OC)C)C)N(C(=O)O2)CCCCN4C=C(N=C4)C5=CN=CC=C5)C

> <PUBCHEM_CACTVS_TPSA>
172

> <PUBCHEM_MONOISOTOPIC_WEIGHT>
811.47314329

> <PUBCHEM_TOTAL_CHARGE>
0

> <PUBCHEM_HEAVY_ATOM_COUNT>
58

> <PUBCHEM_ATOM_DEF_STEREO_COUNT>
13

> <PUBCHEM_ATOM_UDEF_STEREO_COUNT>
0

> <PUBCHEM_BOND_DEF_STEREO_COUNT>
0

> <PUBCHEM_BOND_UDEF_STEREO_COUNT>
0

> <PUBCHEM_ISOTOPIC_ATOM_COUNT>
0

> <PUBCHEM_COMPONENT_COUNT>
1

> <PUBCHEM_CACTVS_TAUTO_COUNT>
-1

> <PUBCHEM_COORDINATE_TYPE>
1
5
255

> <PUBCHEM_BONDANNOTATIONS>
36  12  5
13  51  8
13  52  8
14  52  8
14  53  8
15  56  8
15  58  8
16  59  5
17  25  6
18  28  6
19  29  5
21  33  6
24  3  6
32  3  5
30  42  5
38  45  5
20  4  6
43  47  5
51  53  8
54  55  8
54  56  8
55  57  8
57  58  8
35  8  6

$$$$
