127702
  -OEChem-01302411583D

 56 59  0     0  0  0  0  0  0999 V2000
   -8.5917   -1.9417   -0.4332 Cl  0  0  0  0  0  0  0  0  0  0  0  0
    2.4740   -1.6901    1.3201 S   0  0  0  0  0  0  0  0  0  0  0  0
    2.9708   -2.2653   -1.5862 S   0  0  0  0  0  0  0  0  0  0  0  0
    8.2512    1.1610    0.2001 F   0  0  0  0  0  0  0  0  0  0  0  0
   -3.6904    2.1693    1.2594 O   0  0  0  0  0  0  0  0  0  0  0  0
   -0.5573    1.5460   -0.2172 N   0  0  0  0  0  0  0  0  0  0  0  0
   -3.4451    1.1281    0.2997 C   0  0  0  0  0  0  0  0  0  0  0  0
   -2.3426    0.2119    0.8721 C   0  0  0  0  0  0  0  0  0  0  0  0
   -2.8942    1.8096   -0.9720 C   0  0  0  0  0  0  0  0  0  0  0  0
   -1.0039    0.9417    1.0430 C   0  0  0  0  0  0  0  0  0  0  0  0
   -1.5485    2.5020   -0.7245 C   0  0  0  0  0  0  0  0  0  0  0  0
    0.7405    2.1973   -0.0421 C   0  0  0  0  0  0  0  0  0  0  0  0
    1.7964    1.1737    0.3721 C   0  0  0  0  0  0  0  0  0  0  0  0
    1.9354    0.0685   -0.6755 C   0  0  0  0  0  0  0  0  0  0  0  0
   -4.7485    0.3523    0.1146 C   0  0  0  0  0  0  0  0  0  0  0  0
    3.0236   -0.9482   -0.2825 C   0  0  0  0  0  0  0  0  0  0  0  0
    4.4368   -0.3783   -0.1528 C   0  0  0  0  0  0  0  0  0  0  0  0
   -5.3172    0.2399   -1.1534 C   0  0  0  0  0  0  0  0  0  0  0  0
   -5.3663   -0.2428    1.2135 C   0  0  0  0  0  0  0  0  0  0  0  0
    1.6351   -3.1242    0.6054 C   0  0  0  0  0  0  0  0  0  0  0  0
    2.5159   -3.6501   -0.5078 C   0  0  0  0  0  0  0  0  0  0  0  0
   -6.5063   -0.4693   -1.3227 C   0  0  0  0  0  0  0  0  0  0  0  0
   -6.5554   -0.9522    1.0439 C   0  0  0  0  0  0  0  0  0  0  0  0
    5.3385   -0.9503    0.7440 C   0  0  0  0  0  0  0  0  0  0  0  0
    4.8222    0.7128   -0.9306 C   0  0  0  0  0  0  0  0  0  0  0  0
   -7.1254   -1.0654   -0.2240 C   0  0  0  0  0  0  0  0  0  0  0  0
    6.6274   -0.4303    0.8631 C   0  0  0  0  0  0  0  0  0  0  0  0
    6.1112    1.2327   -0.8116 C   0  0  0  0  0  0  0  0  0  0  0  0
    7.0137    0.6612    0.0853 C   0  0  0  0  0  0  0  0  0  0  0  0
   -2.2005   -0.6575    0.2155 H   0  0  0  0  0  0  0  0  0  0  0  0
   -2.6294   -0.1752    1.8577 H   0  0  0  0  0  0  0  0  0  0  0  0
   -2.7500    1.0736   -1.7741 H   0  0  0  0  0  0  0  0  0  0  0  0
   -3.5991    2.5681   -1.3361 H   0  0  0  0  0  0  0  0  0  0  0  0
   -1.0896    1.6976    1.8346 H   0  0  0  0  0  0  0  0  0  0  0  0
   -0.3104    0.1757    1.3994 H   0  0  0  0  0  0  0  0  0  0  0  0
   -1.2043    2.9201   -1.6786 H   0  0  0  0  0  0  0  0  0  0  0  0
   -1.6779    3.3437   -0.0317 H   0  0  0  0  0  0  0  0  0  0  0  0
    1.0557    2.6613   -0.9855 H   0  0  0  0  0  0  0  0  0  0  0  0
    0.6896    2.9973    0.7078 H   0  0  0  0  0  0  0  0  0  0  0  0
    2.7389    1.7273    0.4560 H   0  0  0  0  0  0  0  0  0  0  0  0
    1.6032    0.8168    1.3854 H   0  0  0  0  0  0  0  0  0  0  0  0
    0.9711   -0.4460   -0.7918 H   0  0  0  0  0  0  0  0  0  0  0  0
    2.1373    0.5199   -1.6556 H   0  0  0  0  0  0  0  0  0  0  0  0
   -4.4388    2.7023    0.9394 H   0  0  0  0  0  0  0  0  0  0  0  0
   -4.8794    0.6878   -2.0383 H   0  0  0  0  0  0  0  0  0  0  0  0
   -4.9440   -0.1585    2.2108 H   0  0  0  0  0  0  0  0  0  0  0  0
    1.4825   -3.8857    1.3759 H   0  0  0  0  0  0  0  0  0  0  0  0
    0.6497   -2.8228    0.2338 H   0  0  0  0  0  0  0  0  0  0  0  0
    1.9921   -4.4125   -1.0923 H   0  0  0  0  0  0  0  0  0  0  0  0
    3.4300   -4.1067   -0.1119 H   0  0  0  0  0  0  0  0  0  0  0  0
    5.1116   -1.8273    1.3407 H   0  0  0  0  0  0  0  0  0  0  0  0
    4.1593    1.1743   -1.6544 H   0  0  0  0  0  0  0  0  0  0  0  0
   -6.9401   -0.5490   -2.3163 H   0  0  0  0  0  0  0  0  0  0  0  0
   -7.0278   -1.4099    1.9093 H   0  0  0  0  0  0  0  0  0  0  0  0
    7.3341   -0.8806    1.5538 H   0  0  0  0  0  0  0  0  0  0  0  0
    6.4141    2.0799   -1.4199 H   0  0  0  0  0  0  0  0  0  0  0  0
  1 26  1  0  0  0  0
  2 16  1  0  0  0  0
  2 20  1  0  0  0  0
  3 16  1  0  0  0  0
  3 21  1  0  0  0  0
  4 29  1  0  0  0  0
  5  7  1  0  0  0  0
  5 44  1  0  0  0  0
  6 10  1  0  0  0  0
  6 11  1  0  0  0  0
  6 12  1  0  0  0  0
  7  8  1  0  0  0  0
  7  9  1  0  0  0  0
  7 15  1  0  0  0  0
  8 10  1  0  0  0  0
  8 30  1  0  0  0  0
  8 31  1  0  0  0  0
  9 11  1  0  0  0  0
  9 32  1  0  0  0  0
  9 33  1  0  0  0  0
 10 34  1  0  0  0  0
 10 35  1  0  0  0  0
 11 36  1  0  0  0  0
 11 37  1  0  0  0  0
 12 13  1  0  0  0  0
 12 38  1  0  0  0  0
 12 39  1  0  0  0  0
 13 14  1  0  0  0  0
 13 40  1  0  0  0  0
 13 41  1  0  0  0  0
 14 16  1  0  0  0  0
 14 42  1  0  0  0  0
 14 43  1  0  0  0  0
 15 18  2  0  0  0  0
 15 19  1  0  0  0  0
 16 17  1  0  0  0  0
 17 24  2  0  0  0  0
 17 25  1  0  0  0  0
 18 22  1  0  0  0  0
 18 45  1  0  0  0  0
 19 23  2  0  0  0  0
 19 46  1  0  0  0  0
 20 21  1  0  0  0  0
 20 47  1  0  0  0  0
 20 48  1  0  0  0  0
 21 49  1  0  0  0  0
 21 50  1  0  0  0  0
 22 26  2  0  0  0  0
 22 53  1  0  0  0  0
 23 26  1  0  0  0  0
 23 54  1  0  0  0  0
 24 27  1  0  0  0  0
 24 51  1  0  0  0  0
 25 28  2  0  0  0  0
 25 52  1  0  0  0  0
 27 29  2  0  0  0  0
 27 55  1  0  0  0  0
 28 29  1  0  0  0  0
 28 56  1  0  0  0  0
M  END
> <PUBCHEM_COMPOUND_CID>
127702

> <PUBCHEM_CONFORMER_RMSD>
1

> <PUBCHEM_CONFORMER_DIVERSEORDER>
2
32
46
20
22
42
37
34
44
36
24
43
14
12
30
58
48
41
16
18
49
40
59
33
21
15
4
55
23
52
31
27
29
35
57
3
10
51
13
39
8
28
45
19
47
26
5
50
54
6
7
11
17
56
9
25
1
53
38

> <PUBCHEM_MMFF94_PARTIAL_CHARGES>
34
1 -0.18
10 0.27
11 0.27
12 0.27
15 -0.14
16 0.6
17 -0.14
18 -0.15
19 -0.15
2 -0.46
20 0.23
21 0.23
22 -0.15
23 -0.15
24 -0.15
25 -0.15
26 0.18
27 -0.15
28 -0.15
29 0.19
3 -0.46
4 -0.19
44 0.4
45 0.15
46 0.15
5 -0.68
51 0.15
52 0.15
53 0.15
54 0.15
55 0.15
56 0.15
6 -0.81
7 0.42

> <PUBCHEM_EFFECTIVE_ROTOR_COUNT>
8.2

> <PUBCHEM_PHARMACOPHORE_FEATURES>
7
1 5 acceptor
1 5 donor
1 6 cation
5 2 3 16 20 21 rings
6 15 18 19 22 23 26 rings
6 17 24 25 27 28 29 rings
6 6 7 8 9 10 11 rings

> <PUBCHEM_HEAVY_ATOM_COUNT>
29

> <PUBCHEM_ATOM_DEF_STEREO_COUNT>
0

> <PUBCHEM_ATOM_UDEF_STEREO_COUNT>
0

> <PUBCHEM_BOND_DEF_STEREO_COUNT>
0

> <PUBCHEM_BOND_UDEF_STEREO_COUNT>
0

> <PUBCHEM_ISOTOPIC_ATOM_COUNT>
0

> <PUBCHEM_COMPONENT_COUNT>
1

> <PUBCHEM_CACTVS_TAUTO_COUNT>
1

> <PUBCHEM_CONFORMER_ID>
0001F2D600000002

> <PUBCHEM_MMFF94_ENERGY>
77.3351

> <PUBCHEM_FEATURE_SELFOVERLAP>
35.522

> <PUBCHEM_SHAPE_FINGERPRINT>
10319926 262 12031493381318755949
10674148 151 12823295698457870734
10763959 59 9871742481818724138
11089746 13 12396302569133655735
11136131 41 18188484662704011082
11421498 54 17417535701198934216
11719270 70 18334855013705106754
11724838 91 18334576850570070508
11828532 37 14563110164283560501
11963148 33 18408314489058136818
12202916 173 17967812764728462778
12516196 113 17989490714264309889
12596602 18 17418098671888752547
12664476 115 11023833864612455659
12778500 126 11815896773568302450
13692114 37 18270674398309840186
13914758 101 14418126305564804884
14341114 176 12463568478496737704
14394314 77 18272658905408356121
1454969 45 18409168826914199380
14840074 17 18060134328560771943
15142383 8 9007059067736463894
15183329 4 10809341143990217068
15320295 40 16443057314049388140
15537594 2 17989479715148262903
15728490 51 18130504227398758150
15927050 60 17764312039394492228
17492 89 18121499046953043990
18335252 114 9007064526360406971
18608769 82 18337954592813367091
20105231 36 14979963587942673332
21049683 271 18411699928446953504
21130935 74 18270963428117836698
21197605 99 18411419497505530710
21344244 181 17417824915928908446
21365058 27 17060621109861023142
21521721 280 18201439220697794600
21623969 137 18408605846463652862
21774942 28 13912589525189020639
22149856 69 18129954381274311136
22224240 67 18343300388466777280
22956985 138 17974845065813849226
23516275 137 16987465073310801927
23522609 53 18194152700779388441
23559900 14 17968659440559509073
23569917 315 18340208489019907934
249057 3 8574711299589507505
25222932 49 18342736291013777111
25223398 141 13768792186358173297
34797466 226 16773801424518963536
4066623 53 15213018262730117415
4325135 7 18334294275643804268
4366758 6 15791727516270202794
437795 51 17632006546571312168
4461854 278 17703514393264649711
474113 269 15285900444183467144
5381727 24 18272649040363894074
5912855 24 17985554351052300297
59682541 35 18272646883578239768
59755656 520 11383829355618226725
6004065 56 18336828683873276912
6081469 158 13840258166573977928
6394761 36 8214148455966986106

> <PUBCHEM_SHAPE_MULTIPOLES>
588.25
22.47
2.98
1.3
12.38
1.63
-0.04
4.71
-0.94
-0.91
-0.35
0.45
0.23
-0.35

> <PUBCHEM_SHAPE_SELFOVERLAP>
1215.065

> <PUBCHEM_SHAPE_VOLUME>
342.3

> <PUBCHEM_COORDINATE_TYPE>
2
5
10

$$$$
