12463
  -OEChem-07272519403D

 12 12  0     0  0  0  0  0  0999 V2000
    1.5797    2.1832    0.0001 Cl  0  0  0  0  0  0  0  0  0  0  0  0
   -1.5794    2.1831   -0.0001 Cl  0  0  0  0  0  0  0  0  0  0  0  0
    3.1234   -0.6083    0.0001 Cl  0  0  0  0  0  0  0  0  0  0  0  0
   -3.1235   -0.6079    0.0001 Cl  0  0  0  0  0  0  0  0  0  0  0  0
    0.6975    0.6831   -0.0001 C   0  0  0  0  0  0  0  0  0  0  0  0
   -0.6975    0.6831    0.0000 C   0  0  0  0  0  0  0  0  0  0  0  0
    1.3948   -0.5250   -0.0001 C   0  0  0  0  0  0  0  0  0  0  0  0
   -1.3948   -0.5251    0.0000 C   0  0  0  0  0  0  0  0  0  0  0  0
    0.6973   -1.7330   -0.0001 C   0  0  0  0  0  0  0  0  0  0  0  0
   -0.6975   -1.7331    0.0001 C   0  0  0  0  0  0  0  0  0  0  0  0
    1.2239   -2.6842    0.0000 H   0  0  0  0  0  0  0  0  0  0  0  0
   -1.2241   -2.6842    0.0001 H   0  0  0  0  0  0  0  0  0  0  0  0
  1  5  1  0  0  0  0
  2  6  1  0  0  0  0
  3  7  1  0  0  0  0
  4  8  1  0  0  0  0
  5  6  1  0  0  0  0
  5  7  2  0  0  0  0
  6  8  2  0  0  0  0
  7  9  1  0  0  0  0
  8 10  1  0  0  0  0
  9 10  2  0  0  0  0
  9 11  1  0  0  0  0
 10 12  1  0  0  0  0
M  END
> <PUBCHEM_COMPOUND_CID>
12463

> <PUBCHEM_CONFORMER_RMSD>
0.4

> <PUBCHEM_CONFORMER_DIVERSEORDER>
1

> <PUBCHEM_MMFF94_PARTIAL_CHARGES>
12
1 -0.18
10 -0.15
11 0.15
12 0.15
2 -0.18
3 -0.18
4 -0.18
5 0.18
6 0.18
7 0.18
8 0.18
9 -0.15

> <PUBCHEM_EFFECTIVE_ROTOR_COUNT>
0

> <PUBCHEM_PHARMACOPHORE_FEATURES>
1
6 5 6 7 8 9 10 rings

> <PUBCHEM_HEAVY_ATOM_COUNT>
10

> <PUBCHEM_ATOM_DEF_STEREO_COUNT>
0

> <PUBCHEM_ATOM_UDEF_STEREO_COUNT>
0

> <PUBCHEM_BOND_DEF_STEREO_COUNT>
0

> <PUBCHEM_BOND_UDEF_STEREO_COUNT>
0

> <PUBCHEM_ISOTOPIC_ATOM_COUNT>
0

> <PUBCHEM_COMPONENT_COUNT>
1

> <PUBCHEM_CACTVS_TAUTO_COUNT>
1

> <PUBCHEM_CONFORMER_ID>
000030AF00000001

> <PUBCHEM_MMFF94_ENERGY>
22.2178

> <PUBCHEM_FEATURE_SELFOVERLAP>
5.074

> <PUBCHEM_SHAPE_FINGERPRINT>
11206711 2 18337111172440787517
12423570 1 17917992775913415999
12524768 44 18195530508895845214
161256 15 18411139177088597388
16945 1 18410856563935055686
193761 8 18410856559640146853
21040471 1 17978229357305894816
2334 1 17978511167216565315
23402655 69 18123733276725389509
23552423 10 18045781453620566830
241688 4 17978794510551360426
2748010 2 18050572034030044446
5084963 1 18202846551850666962
53812653 166 18198336265107085160
66348 1 18266735779537821189

> <PUBCHEM_SHAPE_MULTIPOLES>
213.27
3.77
2.44
0.63
0
1.06
0
-0.47
0
0
0
0
0.01
0

> <PUBCHEM_SHAPE_SELFOVERLAP>
409.048

> <PUBCHEM_SHAPE_VOLUME>
129.6

> <PUBCHEM_COORDINATE_TYPE>
2
5
10

$$$$
