7270
  -OEChem-07272519343D

 12 12  0     0  0  0  0  0  0999 V2000
   -2.6718    1.6176   -0.0007 Cl  0  0  0  0  0  0  0  0  0  0  0  0
   -2.6716   -1.6178   -0.0009 Cl  0  0  0  0  0  0  0  0  0  0  0  0
    2.6719    1.6172   -0.0009 Cl  0  0  0  0  0  0  0  0  0  0  0  0
    2.6719   -1.6172   -0.0001 Cl  0  0  0  0  0  0  0  0  0  0  0  0
   -1.2081    0.6976    0.0008 C   0  0  0  0  0  0  0  0  0  0  0  0
   -1.2081   -0.6973    0.0006 C   0  0  0  0  0  0  0  0  0  0  0  0
    1.2080    0.6974    0.0003 C   0  0  0  0  0  0  0  0  0  0  0  0
    1.2079   -0.6975   -0.0001 C   0  0  0  0  0  0  0  0  0  0  0  0
    0.0000    1.3949    0.0007 C   0  0  0  0  0  0  0  0  0  0  0  0
   -0.0001   -1.3948    0.0002 C   0  0  0  0  0  0  0  0  0  0  0  0
    0.0001    2.4831    0.0005 H   0  0  0  0  0  0  0  0  0  0  0  0
   -0.0001   -2.4831   -0.0001 H   0  0  0  0  0  0  0  0  0  0  0  0
  1  5  1  0  0  0  0
  2  6  1  0  0  0  0
  3  7  1  0  0  0  0
  4  8  1  0  0  0  0
  5  6  2  0  0  0  0
  5  9  1  0  0  0  0
  6 10  1  0  0  0  0
  7  8  1  0  0  0  0
  7  9  2  0  0  0  0
  8 10  2  0  0  0  0
  9 11  1  0  0  0  0
 10 12  1  0  0  0  0
M  END
> <PUBCHEM_COMPOUND_CID>
7270

> <PUBCHEM_CONFORMER_RMSD>
0.4

> <PUBCHEM_CONFORMER_DIVERSEORDER>
1

> <PUBCHEM_MMFF94_PARTIAL_CHARGES>
12
1 -0.18
10 -0.15
11 0.15
12 0.15
2 -0.18
3 -0.18
4 -0.18
5 0.18
6 0.18
7 0.18
8 0.18
9 -0.15

> <PUBCHEM_EFFECTIVE_ROTOR_COUNT>
0

> <PUBCHEM_PHARMACOPHORE_FEATURES>
1
6 5 6 7 8 9 10 rings

> <PUBCHEM_HEAVY_ATOM_COUNT>
10

> <PUBCHEM_ATOM_DEF_STEREO_COUNT>
0

> <PUBCHEM_ATOM_UDEF_STEREO_COUNT>
0

> <PUBCHEM_BOND_DEF_STEREO_COUNT>
0

> <PUBCHEM_BOND_UDEF_STEREO_COUNT>
0

> <PUBCHEM_ISOTOPIC_ATOM_COUNT>
0

> <PUBCHEM_COMPONENT_COUNT>
1

> <PUBCHEM_CACTVS_TAUTO_COUNT>
1

> <PUBCHEM_CONFORMER_ID>
00001C6600000001

> <PUBCHEM_MMFF94_ENERGY>
19.5923

> <PUBCHEM_FEATURE_SELFOVERLAP>
5.074

> <PUBCHEM_SHAPE_FINGERPRINT>
12423570 1 11081070208630712600
13380535 21 18410867559051333444
14325111 11 18410855468734245440
14911166 2 18122624955127431574
161256 15 18340215196850579582
16945 1 18410293605391400964
193761 8 18410856559639789575
19973954 147 18410573985151477124
21040471 1 18410855460133728864
21501502 16 18410856563934756869
2334 1 18410575119022817286
23402655 69 18341034308161263399
23552423 10 18333733520038856390
241688 4 18335983086268977472
2748010 2 18410575084663079079
5084963 1 18272932725835206675
68250623 7 18410578387493130918

> <PUBCHEM_SHAPE_MULTIPOLES>
213.27
4.2
2.3
0.63
0
0
0
0
0
0
0
0
0
0

> <PUBCHEM_SHAPE_SELFOVERLAP>
408.569

> <PUBCHEM_SHAPE_VOLUME>
131.4

> <PUBCHEM_COORDINATE_TYPE>
2
5
10

$$$$
