10943
  -OEChem-07272519033D

 12 12  0     0  0  0  0  0  0999 V2000
   -2.6987   -1.1679   -0.0007 Cl  0  0  0  0  0  0  0  0  0  0  0  0
    2.6991   -1.1677   -0.0003 Cl  0  0  0  0  0  0  0  0  0  0  0  0
    0.0000   -1.0057    0.0005 C   0  0  0  0  0  0  0  0  0  0  0  0
   -1.2080   -0.3082    0.0005 C   0  0  0  0  0  0  0  0  0  0  0  0
    1.2080   -0.3082    0.0001 C   0  0  0  0  0  0  0  0  0  0  0  0
   -1.2080    1.0867    0.0002 C   0  0  0  0  0  0  0  0  0  0  0  0
    1.2078    1.0868   -0.0003 C   0  0  0  0  0  0  0  0  0  0  0  0
   -0.0001    1.7842   -0.0002 C   0  0  0  0  0  0  0  0  0  0  0  0
    0.0000   -2.0937    0.0005 H   0  0  0  0  0  0  0  0  0  0  0  0
   -2.1416    1.6435   -0.0001 H   0  0  0  0  0  0  0  0  0  0  0  0
    2.1414    1.6436   -0.0006 H   0  0  0  0  0  0  0  0  0  0  0  0
   -0.0002    2.8703   -0.0005 H   0  0  0  0  0  0  0  0  0  0  0  0
  1  4  1  0  0  0  0
  2  5  1  0  0  0  0
  3  4  2  0  0  0  0
  3  5  1  0  0  0  0
  3  9  1  0  0  0  0
  4  6  1  0  0  0  0
  5  7  2  0  0  0  0
  6  8  2  0  0  0  0
  6 10  1  0  0  0  0
  7  8  1  0  0  0  0
  7 11  1  0  0  0  0
  8 12  1  0  0  0  0
M  END
> <PUBCHEM_COMPOUND_CID>
10943

> <PUBCHEM_CONFORMER_RMSD>
0.4

> <PUBCHEM_CONFORMER_DIVERSEORDER>
1

> <PUBCHEM_MMFF94_PARTIAL_CHARGES>
12
1 -0.18
10 0.15
11 0.15
12 0.15
2 -0.18
3 -0.15
4 0.18
5 0.18
6 -0.15
7 -0.15
8 -0.15
9 0.15

> <PUBCHEM_EFFECTIVE_ROTOR_COUNT>
0

> <PUBCHEM_PHARMACOPHORE_FEATURES>
1
6 3 4 5 6 7 8 rings

> <PUBCHEM_HEAVY_ATOM_COUNT>
8

> <PUBCHEM_ATOM_DEF_STEREO_COUNT>
0

> <PUBCHEM_ATOM_UDEF_STEREO_COUNT>
0

> <PUBCHEM_BOND_DEF_STEREO_COUNT>
0

> <PUBCHEM_BOND_UDEF_STEREO_COUNT>
0

> <PUBCHEM_ISOTOPIC_ATOM_COUNT>
0

> <PUBCHEM_COMPONENT_COUNT>
1

> <PUBCHEM_CACTVS_TAUTO_COUNT>
1

> <PUBCHEM_CONFORMER_ID>
00002ABF00000001

> <PUBCHEM_MMFF94_ENERGY>
14.7608

> <PUBCHEM_FEATURE_SELFOVERLAP>
5.074

> <PUBCHEM_SHAPE_FINGERPRINT>
10857977 72 18340472396872561058
14128692 85 18410018736285446766
16714656 1 18122347874176596940
18185500 45 18409730655443312867
20871998 184 18129657487555178038
20871998 22 18342749498075206558
21040471 1 16969422400856775905
23552423 10 18260271819724566062
241688 4 18409166580203380488
2748010 2 18410848867364081020
29004967 10 18191587656109323713
5084963 1 18272089396121598787

> <PUBCHEM_SHAPE_MULTIPOLES>
168.38
3.28
1.81
0.63
0
0.51
0
-1.93
0
0
0
0
-0.01
0

> <PUBCHEM_SHAPE_SELFOVERLAP>
329.912

> <PUBCHEM_SHAPE_VOLUME>
99.1

> <PUBCHEM_COORDINATE_TYPE>
2
5
10

$$$$
