6436027
  -OEChem-07162413242D

 65 71  0  0  1  0            999 V2000
    2.6229    1.4600   -0.0374 C   0  0  2  0  0  0  0  0  0  0  0  0
    0.6068   -0.9819   -3.1859 C   0  0  2  0  0  0  0  0  0  0  0  0
    1.1514    0.7739   -1.7253 B   0  5  2  0  0  0  0  0  0  0  0  0
    1.5669    2.5676   -0.3282 C   0  0  2  0  0  0  0  0  0  0  0  0
    0.2326   -1.3820   -1.7141 C   0  0  2  0  0  0  0  0  0  0  0  0
    1.1110    0.3616   -3.1904 O   0  0  0  0  0  0  0  0  0  0  0  0
    2.5916    0.6492   -1.2162 O   0  0  0  0  0  0  0  0  0  0  0  0
    2.2758    0.5807    1.0779 O   0  0  0  0  0  0  0  0  0  0  0  0
   -0.6440   -0.8852   -3.9072 O   0  0  0  0  0  0  0  0  0  0  0  0
   -0.9342   -2.2381   -1.4784 C   0  0  0  0  0  0  0  0  0  0  0  0
    0.7092    3.0198    0.7394 C   0  0  0  0  0  0  0  0  0  0  0  0
    0.0900   -0.1185   -1.0630 O   0  0  0  0  0  0  0  0  0  0  0  0
    0.8542    2.2559   -1.5272 O   0  0  0  0  0  0  0  0  0  0  0  0
   -1.5433   -2.2362   -0.3806 O   0  0  0  0  0  0  0  0  0  0  0  0
   -0.4779    2.6540    0.7431 O   0  0  0  0  0  0  0  0  0  0  0  0
   -0.6252    3.4426    4.7442 C   0  0  0  0  0  0  0  0  0  0  0  0
   -2.2651   -0.4219   -5.6974 C   0  0  1  0  0  0  0  0  0  0  0  0
    2.5527   -1.5173    2.5024 C   0  0  2  0  0  0  0  0  0  0  0  0
   -0.7317   -0.5685   -5.3173 C   0  0  2  0  0  0  0  0  0  0  0  0
    3.1837   -0.5104    1.4441 C   0  0  2  0  0  0  0  0  0  0  0  0
   -2.6612   -2.8455    0.0755 C   0  0  2  0  0  0  0  0  0  0  0  0
   -3.1648   -3.6941    2.2779 O   0  0  0  0  0  0  0  0  0  0  0  0
   -0.6113    2.8047    3.6775 O   0  0  0  0  0  0  0  0  0  0  0  0
    1.5463   -1.9851   -3.9441 C   0  0  1  0  0  0  0  0  0  0  0  0
    4.0296    2.1087    0.2303 C   0  0  1  0  0  0  0  0  0  0  0  0
    0.6555    3.6149    5.3990 C   0  0  1  0  0  0  0  0  0  0  0  0
   -2.9356   -2.4871    1.5457 C   0  0  2  0  0  0  0  0  0  0  0  0
   -2.6158   -4.3860    0.1035 C   0  0  0  0  0  0  0  0  0  0  0  0
   -1.5390    2.9809    1.4937 C   0  0  2  0  0  0  0  0  0  0  0  0
    0.7688    4.9588    5.9937 N   0  3  0  0  0  0  0  0  0  0  0  0
    1.2107    3.7847    1.5536 O   0  0  0  0  0  0  0  0  0  0  0  0
   -1.2835   -2.9914   -2.3812 O   0  0  0  0  0  0  0  0  0  0  0  0
   -1.6009    2.3369    2.9089 C   0  0  1  0  0  0  0  0  0  0  0  0
   -2.5446   -4.7801    1.5869 C   0  0  1  0  0  0  0  0  0  0  0  0
   -1.6472    3.8695    5.2735 O   0  0  0  0  0  0  0  0  0  0  0  0
    1.2952   -2.2526    1.9002 C   0  0  2  0  0  0  0  0  0  0  0  0
   -2.9721    0.6890   -4.8178 C   0  0  1  0  0  0  0  0  0  0  0  0
    4.5649    0.1556    1.7830 C   0  0  0  0  0  0  0  0  0  0  0  0
    0.1790   -1.5978   -6.0740 C   0  0  0  0  0  0  0  0  0  0  0  0
    5.0918    1.0767    0.6644 C   0  0  0  0  0  0  0  0  0  0  0  0
    1.5954   -1.7270   -5.4685 C   0  0  0  0  0  0  0  0  0  0  0  0
   -3.1606    1.5246    0.1898 C   0  0  0  0  0  0  0  0  0  0  0  0
   -3.2361    0.9841   -1.0299 C   0  0  0  0  0  0  0  0  0  0  0  0
    1.0405    2.4262    6.3269 C   0  0  1  0  0  0  0  0  0  0  0  0
    2.2242   -0.8138    3.8457 C   0  0  0  0  0  0  0  0  0  0  0  0
   -2.4097   -0.0188   -7.1877 C   0  0  0  0  0  0  0  0  0  0  0  0
   -3.0483   -1.7636   -5.7001 C   0  0  0  0  0  0  0  0  0  0  0  0
    3.5578   -2.6271    2.9183 C   0  0  0  0  0  0  0  0  0  0  0  0
   -4.2622    1.1311   -5.2521 O   0  0  0  0  0  0  0  0  0  0  0  0
    0.3160   -1.3137    1.4819 O   0  0  0  0  0  0  0  0  0  0  0  0
   -2.8141    2.8579    0.6244 C   0  0  0  0  0  0  0  0  0  0  0  0
    0.1377   -4.5224    1.8018 C   0  0  0  0  0  0  0  0  0  0  0  0
   -4.1565   -1.5730    1.7207 C   0  0  0  0  0  0  0  0  0  0  0  0
   -1.1739   -5.2626    2.1394 C   0  0  0  0  0  0  0  0  0  0  0  0
    0.4305   -3.2903    2.6681 C   0  0  0  0  0  0  0  0  0  0  0  0
   -1.5008    0.8007    2.9838 C   0  0  0  0  0  0  0  0  0  0  0  0
    4.7167    2.8792   -0.9163 C   0  0  0  0  0  0  0  0  0  0  0  0
    3.0135   -2.0141   -3.4786 C   0  0  0  0  0  0  0  0  0  0  0  0
   -2.9989    1.5438   -2.3334 C   0  0  0  0  0  0  0  0  0  0  0  0
   -3.2035    0.3866   -3.3152 C   0  0  0  0  0  0  0  0  0  0  0  0
    2.4941    2.5061    6.8146 C   0  0  0  0  0  0  0  0  0  0  0  0
    0.1705    2.1976    7.5754 C   0  0  0  0  0  0  0  0  0  0  0  0
   -0.2570    0.4121   -5.4551 H   0  0  0  0  0  0  0  0  0  0  0  0
    1.0690   -1.8885   -1.2208 H   0  0  0  0  0  0  0  0  0  0  0  0
    3.3625   -1.1008    0.5344 H   0  0  0  0  0  0  0  0  0  0  0  0
  1  4  1  0  0  0  0
  1  7  1  0  0  0  0
  1  8  1  0  0  0  0
  1 25  1  0  0  0  0
  2  6  1  0  0  0  0
  2  9  1  0  0  0  0
  2 24  1  0  0  0  0
  2  5  1  0  0  0  0
  3  7  1  0  0  0  0
  3  6  1  0  0  0  0
  3 12  1  0  0  0  0
  3 13  1  0  0  0  0
  4 11  1  0  0  0  0
  4 13  1  0  0  0  0
  5 12  1  0  0  0  0
  5 10  1  0  0  0  0
  5 64  1  0  0  0  0
  8 20  1  0  0  0  0
  9 19  1  0  0  0  0
 10 14  1  0  0  0  0
 10 32  2  0  0  0  0
 11 15  1  0  0  0  0
 11 31  2  0  0  0  0
 21 14  1  0  0  0  0
 29 15  1  0  0  0  0
 16 23  1  0  0  0  0
 16 26  1  0  0  0  0
 16 35  2  0  0  0  0
 17 19  1  0  0  0  0
 17 37  1  0  0  0  0
 17 46  1  0  0  0  0
 17 47  1  0  0  0  0
 18 20  1  0  0  0  0
 18 36  1  0  0  0  0
 18 45  1  0  0  0  0
 18 48  1  0  0  0  0
 19 63  1  0  0  0  0
 19 39  1  0  0  0  0
 20 65  1  0  0  0  0
 20 38  1  0  0  0  0
 21 27  1  0  0  0  0
 21 28  1  0  0  0  0
 22 34  1  0  0  0  0
 22 27  1  0  0  0  0
 33 23  1  0  0  0  0
 24 41  1  0  0  0  0
 24 58  1  0  0  0  0
 25 40  1  0  0  0  0
 25 57  1  0  0  0  0
 26 30  1  0  0  0  0
 26 44  1  0  0  0  0
 27 53  1  0  0  0  0
 28 34  1  0  0  0  0
 29 33  1  0  0  0  0
 29 51  1  0  0  0  0
 33 56  1  0  0  0  0
 34 54  1  0  0  0  0
 36 50  1  0  0  0  0
 36 55  1  0  0  0  0
 37 49  1  0  0  0  0
 37 60  1  0  0  0  0
 38 40  1  0  0  0  0
 39 41  1  0  0  0  0
 42 51  1  0  0  0  0
 42 43  2  0  0  0  0
 43 59  1  0  0  0  0
 44 61  1  0  0  0  0
 44 62  1  0  0  0  0
 52 55  1  0  0  0  0
 52 54  1  0  0  0  0
 59 60  1  0  0  0  0
M  CHG  2   3  -1  30   1
M  END
> <PUBCHEM_COMPOUND_CID>
6436027

> <PUBCHEM_COMPOUND_CANONICALIZED>
1

> <PUBCHEM_CACTVS_COMPLEXITY>
1680

> <PUBCHEM_CACTVS_HBOND_ACCEPTOR>
16

> <PUBCHEM_CACTVS_HBOND_DONOR>
3

> <PUBCHEM_CACTVS_ROTATABLE_BOND>
5

> <PUBCHEM_CACTVS_SUBSKEYS>
AAADcfJ+PAAAAAAAAAAAAAAAAAAAASJEgAAkSAAAAAAAAAAAAAAIHgAQCAAADzzhgAYCCABABgCIACDSCAIAAAAgAAAICIHAAAgTEBYAAQADQAAF8AAOAAOI6OyPAAAAAAAAAAAAAAAAAAAAAAAAAAAAAA==

> <PUBCHEM_IUPAC_OPENEYE_NAME>
[(1R)-1-[(1R)-1-[(1R,5S,7E,11S,13S,16R,17R,24S,25R,27R,31R,33S,36R)-11,31-dihydroxy-12,12,16,25,32,32,36-heptamethyl-3,22-dioxo-4,18,20,23,26,37,38,40,41-nonaoxa-19-boranuidaheptacyclo[17.17.1.11,33.12,19.113,17.124,27.017,21]hentetracont-7-en-5-yl]ethoxy]carbonyl-2-methyl-propyl]ammonium

> <PUBCHEM_IUPAC_CAS_NAME>
[(2R)-1-[(1R)-1-[(1R,5S,7E,11S,13S,16R,17R,24S,25R,27R,31R,33S,36R)-11,31-dihydroxy-12,12,16,25,32,32,36-heptamethyl-3,22-dioxo-4,18,20,23,26,37,38,40,41-nonaoxa-19-boranuidaheptacyclo[17.17.1.11,33.12,19.113,17.124,27.017,21]hentetracont-7-en-5-yl]ethoxy]-3-methyl-1-oxobutan-2-yl]ammonium

> <PUBCHEM_IUPAC_NAME_MARKUP>
[(2<I>R</I>)-1-[(1<I>R</I>)-1-[(1<I>R</I>,5<I>S</I>,7<I>E</I>,11<I>S</I>,13<I>S</I>,16<I>R</I>,17<I>R</I>,24<I>S</I>,25<I>R</I>,27<I>R</I>,31<I>R</I>,33<I>S</I>,36<I>R</I>)-11,31-dihydroxy-12,12,16,25,32,32,36-heptamethyl-3,22-dioxo-4,18,20,23,26,37,38,40,41-nonaoxa-19-boranuidaheptacyclo[17.17.1.1<SUP>1,33</SUP>.1<SUP>2,19</SUP>.1<SUP>13,17</SUP>.1<SUP>24,27</SUP>.0<SUP>17,21</SUP>]hentetracont-7-en-5-yl]ethoxy]-3-methyl-1-oxobutan-2-yl]azanium

> <PUBCHEM_IUPAC_NAME>
[(2R)-1-[(1R)-1-[(1R,5S,7E,11S,13S,16R,17R,24S,25R,27R,31R,33S,36R)-11,31-dihydroxy-12,12,16,25,32,32,36-heptamethyl-3,22-dioxo-4,18,20,23,26,37,38,40,41-nonaoxa-19-boranuidaheptacyclo[17.17.1.11,33.12,19.113,17.124,27.017,21]hentetracont-7-en-5-yl]ethoxy]-3-methyl-1-oxobutan-2-yl]azanium

> <PUBCHEM_IUPAC_SYSTEMATIC_NAME>
[(2R)-1-[(1R)-1-[(1R,5S,7E,11S,13S,16R,17R,24S,25R,27R,31R,33S,36R)-12,12,16,25,32,32,36-heptamethyl-11,31-bis(oxidanyl)-3,22-bis(oxidanylidene)-4,18,20,23,26,37,38,40,41-nonaoxa-19-boranuidaheptacyclo[17.17.1.11,33.12,19.113,17.124,27.017,21]hentetracont-7-en-5-yl]ethoxy]-3-methyl-1-oxidanylidene-butan-2-yl]azanium

> <PUBCHEM_IUPAC_TRADITIONAL_NAME>
[(1R)-1-[(1R)-1-[(1R,5S,7E,11S,13S,16R,17R,24S,25R,27R,31R,33S,36R)-11,31-dihydroxy-3,22-diketo-12,12,16,25,32,32,36-heptamethyl-4,18,20,23,26,37,38,40,41-nonaoxa-19-boranuidaheptacyclo[17.17.1.11,33.12,19.113,17.124,27.017,21]hentetracont-7-en-5-yl]ethoxy]carbonyl-2-methyl-propyl]ammonium

> <PUBCHEM_IUPAC_INCHI>
InChI=1S/C45H73BNO15/c1-24(2)36(47)39(50)54-27(5)30-16-12-11-13-17-32(48)42(7,8)34-21-19-26(4)45(57-34)38-41(52)56-31-23-29(53-28(31)6)15-14-18-33(49)43(9,10)35-22-20-25(3)44(58-35)37(40(51)55-30)59-46(60-38,61-44)62-45/h11-12,24-38,48-49H,13-23,47H2,1-10H3/q-1/p+1/b12-11+/t25-,26-,27-,28-,29-,30+,31+,32+,33-,34+,35+,36-,37?,38?,44+,45+,46?/m1/s1

> <PUBCHEM_IUPAC_INCHIKEY>
OOBFYEMEQCZLJL-XURNZCJASA-O

> <PUBCHEM_EXACT_MASS>
879.5151508

> <PUBCHEM_MOLECULAR_FORMULA>
C45H74BNO15

> <PUBCHEM_MOLECULAR_WEIGHT>
879.9

> <PUBCHEM_OPENEYE_CAN_SMILES>
[B-]123OC4C(=O)OC(CC=CCCC(C(C5CCC(C(O1)(O5)C(O2)C(=O)OC6CC(CCCC(C(C7CCC(C4(O3)O7)C)(C)C)O)OC6C)C)(C)C)O)C(C)OC(=O)C(C(C)C)[NH3+]

> <PUBCHEM_OPENEYE_ISO_SMILES>
[B-]123OC4C(=O)O[C@@H](C/C=C/CC[C@@H](C([C@@H]5CC[C@H]([C@@](O1)(O5)C(O2)C(=O)O[C@H]6C[C@@H](CCC[C@H](C([C@@H]7CC[C@H]([C@@]4(O3)O7)C)(C)C)O)O[C@@H]6C)C)(C)C)O)[C@@H](C)OC(=O)[C@@H](C(C)C)[NH3+]

> <PUBCHEM_CACTVS_TPSA>
212

> <PUBCHEM_MONOISOTOPIC_WEIGHT>
879.5151508

> <PUBCHEM_TOTAL_CHARGE>
0

> <PUBCHEM_HEAVY_ATOM_COUNT>
62

> <PUBCHEM_ATOM_DEF_STEREO_COUNT>
14

> <PUBCHEM_ATOM_UDEF_STEREO_COUNT>
3

> <PUBCHEM_BOND_DEF_STEREO_COUNT>
1

> <PUBCHEM_BOND_UDEF_STEREO_COUNT>
0

> <PUBCHEM_ISOTOPIC_ATOM_COUNT>
0

> <PUBCHEM_COMPONENT_COUNT>
1

> <PUBCHEM_CACTVS_TAUTO_COUNT>
-1

> <PUBCHEM_COORDINATE_TYPE>
1
5
255

> <PUBCHEM_BONDANNOTATIONS>
17  1  5
54  14  6
58  16  5
19  32  6
20  34  6
21  65  6
22  66  6
23  37  3
24  41  3
18  4  5
44  103  5
45  104  5
48  51  5
50  114  6
62  6  3
31  8  6
33  9  5

$$$$
