62302
  -OEChem-07152518273D

 43 45  0     1  0  0  0  0  0999 V2000
    7.1554    1.7615   -0.4229 S   0  0  0  0  0  0  0  0  0  0  0  0
   -6.9668    1.9969   -0.7957 S   0  0  0  0  0  0  0  0  0  0  0  0
    0.9443    0.2702    2.1467 O   0  0  0  0  0  0  0  0  0  0  0  0
   -1.1041   -4.0791    0.2029 O   0  0  0  0  0  0  0  0  0  0  0  0
    6.8676    2.9509   -1.5073 O   0  0  0  0  0  0  0  0  0  0  0  0
   -0.2022   -3.8030   -1.8805 O   0  0  0  0  0  0  0  0  0  0  0  0
    7.5187    2.4081    0.8297 O   0  0  0  0  0  0  0  0  0  0  0  0
    8.0456    0.7918   -1.0423 O   0  0  0  0  0  0  0  0  0  0  0  0
   -8.2173    1.6056    0.1822 O   0  0  0  0  0  0  0  0  0  0  0  0
   -6.6910    3.4109   -0.5864 O   0  0  0  0  0  0  0  0  0  0  0  0
   -7.2582    1.4875   -2.1268 O   0  0  0  0  0  0  0  0  0  0  0  0
    1.9303   -0.9350    0.3549 N   0  0  0  0  0  0  0  0  0  0  0  0
    1.5807   -1.9893   -0.4658 N   0  0  0  0  0  0  0  0  0  0  0  0
   -1.3241   -0.8631    0.5776 N   0  0  0  0  0  0  0  0  0  0  0  0
   -2.3432   -1.0973    1.2685 N   0  0  0  0  0  0  0  0  0  0  0  0
   -0.1643   -1.5991    1.0474 C   0  0  2  0  0  0  0  0  0  0  0  0
    0.9421   -0.6135    1.3060 C   0  0  0  0  0  0  0  0  0  0  0  0
    3.1512   -0.3053    0.1732 C   0  0  0  0  0  0  0  0  0  0  0  0
    0.4063   -2.3678   -0.0860 C   0  0  0  0  0  0  0  0  0  0  0  0
    3.5162    0.7764    0.9830 C   0  0  0  0  0  0  0  0  0  0  0  0
    4.0322   -0.7440   -0.8223 C   0  0  0  0  0  0  0  0  0  0  0  0
    5.6175    0.9676   -0.1941 C   0  0  0  0  0  0  0  0  0  0  0  0
    4.7450    1.4107    0.8000 C   0  0  0  0  0  0  0  0  0  0  0  0
    5.2611   -0.1099   -1.0053 C   0  0  0  0  0  0  0  0  0  0  0  0
   -0.3183   -3.4890   -0.7164 C   0  0  0  0  0  0  0  0  0  0  0  0
   -3.4382   -0.3650    0.7800 C   0  0  0  0  0  0  0  0  0  0  0  0
   -5.6070    1.0862   -0.1883 C   0  0  0  0  0  0  0  0  0  0  0  0
   -4.2628   -0.9215   -0.1930 C   0  0  0  0  0  0  0  0  0  0  0  0
   -3.6902    0.9122    1.2723 C   0  0  0  0  0  0  0  0  0  0  0  0
   -5.3496   -0.1942   -0.6783 C   0  0  0  0  0  0  0  0  0  0  0  0
   -4.7771    1.6394    0.7871 C   0  0  0  0  0  0  0  0  0  0  0  0
   -0.3224   -2.2315    1.9270 H   0  0  0  0  0  0  0  0  0  0  0  0
    2.8957    1.1785    1.7719 H   0  0  0  0  0  0  0  0  0  0  0  0
    3.7912   -1.5785   -1.4756 H   0  0  0  0  0  0  0  0  0  0  0  0
    4.9996    2.2524    1.4380 H   0  0  0  0  0  0  0  0  0  0  0  0
    5.9209   -0.4675   -1.7908 H   0  0  0  0  0  0  0  0  0  0  0  0
   -4.0705   -1.9193   -0.5785 H   0  0  0  0  0  0  0  0  0  0  0  0
   -3.0499    1.3497    2.0336 H   0  0  0  0  0  0  0  0  0  0  0  0
   -5.9862   -0.6489   -1.4321 H   0  0  0  0  0  0  0  0  0  0  0  0
   -4.9622    2.6318    1.1884 H   0  0  0  0  0  0  0  0  0  0  0  0
   -1.6090   -4.8325   -0.1708 H   0  0  0  0  0  0  0  0  0  0  0  0
    6.2212    3.6378   -1.2197 H   0  0  0  0  0  0  0  0  0  0  0  0
   -8.1025    1.8455    1.1318 H   0  0  0  0  0  0  0  0  0  0  0  0
  1  5  1  0  0  0  0
  1  7  2  0  0  0  0
  1  8  2  0  0  0  0
  1 22  1  0  0  0  0
  2  9  1  0  0  0  0
  2 10  2  0  0  0  0
  2 11  2  0  0  0  0
  2 27  1  0  0  0  0
  3 17  2  0  0  0  0
  4 25  1  0  0  0  0
  4 41  1  0  0  0  0
  5 42  1  0  0  0  0
  6 25  2  0  0  0  0
  9 43  1  0  0  0  0
 12 13  1  0  0  0  0
 12 17  1  0  0  0  0
 12 18  1  0  0  0  0
 13 19  2  0  0  0  0
 14 15  2  0  0  0  0
 14 16  1  0  0  0  0
 15 26  1  0  0  0  0
 16 17  1  0  0  0  0
 16 19  1  0  0  0  0
 16 32  1  0  0  0  0
 18 20  2  0  0  0  0
 18 21  1  0  0  0  0
 19 25  1  0  0  0  0
 20 23  1  0  0  0  0
 20 33  1  0  0  0  0
 21 24  2  0  0  0  0
 21 34  1  0  0  0  0
 22 23  2  0  0  0  0
 22 24  1  0  0  0  0
 23 35  1  0  0  0  0
 24 36  1  0  0  0  0
 26 28  2  0  0  0  0
 26 29  1  0  0  0  0
 27 30  2  0  0  0  0
 27 31  1  0  0  0  0
 28 30  1  0  0  0  0
 28 37  1  0  0  0  0
 29 31  2  0  0  0  0
 29 38  1  0  0  0  0
 30 39  1  0  0  0  0
 31 40  1  0  0  0  0
M  END
> <PUBCHEM_COMPOUND_CID>
62302

> <PUBCHEM_CONFORMER_RMSD>
0.8

> <PUBCHEM_CONFORMER_DIVERSEORDER>
1
9
8
5
12
10
14
4
6
3
13
7
2
11

> <PUBCHEM_MMFF94_PARTIAL_CHARGES>
42
1 1.49
10 -0.65
11 -0.65
12 -0.11
13 -0.51
14 -0.25
15 -0.18
16 0.37
17 0.57
18 0.12
19 0.39
2 1.49
20 -0.15
21 -0.15
22 -0.01
23 -0.15
24 -0.15
25 0.72
26 0.18
27 -0.01
28 -0.15
29 -0.15
3 -0.57
30 -0.15
31 -0.15
33 0.15
34 0.15
35 0.15
36 0.15
37 0.15
38 0.15
39 0.15
4 -0.65
40 0.15
41 0.5
42 0.5
43 0.5
5 -0.68
6 -0.57
7 -0.65
8 -0.65
9 -0.68

> <PUBCHEM_EFFECTIVE_ROTOR_COUNT>
6.4

> <PUBCHEM_PHARMACOPHORE_FEATURES>
16
1 10 acceptor
1 11 acceptor
1 13 acceptor
1 3 acceptor
1 4 acceptor
1 5 acceptor
1 6 acceptor
1 7 acceptor
1 8 acceptor
1 9 acceptor
3 4 6 25 anion
4 1 5 7 8 anion
4 2 9 10 11 anion
5 12 13 16 17 19 rings
6 18 20 21 22 23 24 rings
6 26 27 28 29 30 31 rings

> <PUBCHEM_HEAVY_ATOM_COUNT>
31

> <PUBCHEM_ATOM_DEF_STEREO_COUNT>
0

> <PUBCHEM_ATOM_UDEF_STEREO_COUNT>
1

> <PUBCHEM_BOND_DEF_STEREO_COUNT>
0

> <PUBCHEM_BOND_UDEF_STEREO_COUNT>
0

> <PUBCHEM_ISOTOPIC_ATOM_COUNT>
0

> <PUBCHEM_COMPONENT_COUNT>
1

> <PUBCHEM_CACTVS_TAUTO_COUNT>
3

> <PUBCHEM_CONFORMER_ID>
0000F35E00000001

> <PUBCHEM_MMFF94_ENERGY>
67.8054

> <PUBCHEM_FEATURE_SELFOVERLAP>
81.379

> <PUBCHEM_SHAPE_FINGERPRINT>
10006869 2 17968646121754589232
10369192 42 18408039615930463287
105312 117 18411423942110879974
10669705 176 18411983576280717134
10693767 8 16915942859677884046
12013929 112 18263385671989899124
12013929 29 17765997195667628329
12124843 1 17845647059059777325
12218070 45 14057299648051027817
13150687 139 18272939301820683214
13668630 136 13901901215990158797
13673619 4 11239993456554249203
13685833 64 10015577311725176937
13782708 43 11743838036562528306
13911987 19 18131074831189538331
14068700 675 10592050176026649746
14251764 30 9799691489245529829
14931854 50 17703792509101517913
15183329 4 17132117926608169424
15198563 99 17840575222395941183
15238133 3 17168437055707220684
15439362 3 18336548192381124387
15510800 12 11383833809077313316
15803439 3 17346877857866342687
15961568 22 18186801332097703237
16120349 189 18335423495196331062
17899979 129 18198065772852276177
19246450 95 11242237517295588855
2026 5 13254807810569359252
21298829 104 18335704897607737421
23559900 14 17345758646114434506
23576562 1 18194680590760895756
24771293 8 18040435461321645885
2838139 119 18335140950888950728
3103668 31 17913195736401679359
3918712 181 18412819201171617232
393628 179 18340194263270552800
393628 194 18333171665740790717
4015057 19 16056605429964533066
439807 62 11455891360465845585
46194498 28 18053663573671534335
504843 32 18336829787902028755
5104073 3 13407659786594747729
54039377 194 10447932784801428144
5470011 282 13973962121316283032
563151 74 16370722600173844729
5718773 13 10447923971328037325
5937810 71 18201162049426741721
6058803 2 12398879859039253739
6327066 14 18410012143326096047
636775 8 9439134178227415416
999808 66 10952044572527786893

> <PUBCHEM_SHAPE_MULTIPOLES>
572.92
22.73
3.78
1.48
0.29
2.6
0.07
-28.09
8.27
-1.06
1.4
-0.24
-0.08
0.66

> <PUBCHEM_SHAPE_SELFOVERLAP>
1221.218

> <PUBCHEM_SHAPE_VOLUME>
318.7

> <PUBCHEM_COORDINATE_TYPE>
2
5
10

$$$$
