135398634
  -OEChem-04142414243D

 16 17  0     0  0  0  0  0  0999 V2000
    0.1921    2.6659   -0.0004 O   0  0  0  0  0  0  0  0  0  0  0  0
   -2.0715    0.6588    0.0006 N   0  0  0  0  0  0  0  0  0  0  0  0
    1.5740    0.8031    0.0001 N   0  0  0  0  0  0  0  0  0  0  0  0
    0.7566   -1.4536   -0.0003 N   0  0  0  0  0  0  0  0  0  0  0  0
   -1.7194   -1.5432   -0.0006 N   0  0  0  0  0  0  0  0  0  0  0  0
    3.0549   -1.0100    0.0005 N   0  0  0  0  0  0  0  0  0  0  0  0
   -0.7180    0.4885   -0.0001 C   0  0  0  0  0  0  0  0  0  0  0  0
   -0.5245   -0.8731   -0.0004 C   0  0  0  0  0  0  0  0  0  0  0  0
    0.3383    1.4486   -0.0001 C   0  0  0  0  0  0  0  0  0  0  0  0
    1.7483   -0.5924    0.0000 C   0  0  0  0  0  0  0  0  0  0  0  0
   -2.6308   -0.5926    0.0005 C   0  0  0  0  0  0  0  0  0  0  0  0
   -2.5706    1.5386    0.0012 H   0  0  0  0  0  0  0  0  0  0  0  0
    2.4078    1.3835    0.0003 H   0  0  0  0  0  0  0  0  0  0  0  0
   -3.7015   -0.7392    0.0010 H   0  0  0  0  0  0  0  0  0  0  0  0
    3.2905   -1.9965    0.0006 H   0  0  0  0  0  0  0  0  0  0  0  0
    3.8223   -0.3471    0.0008 H   0  0  0  0  0  0  0  0  0  0  0  0
  1  9  2  0  0  0  0
  2  7  1  0  0  0  0
  2 11  1  0  0  0  0
  2 12  1  0  0  0  0
  3  9  1  0  0  0  0
  3 10  1  0  0  0  0
  3 13  1  0  0  0  0
  4  8  1  0  0  0  0
  4 10  2  0  0  0  0
  5  8  1  0  0  0  0
  5 11  2  0  0  0  0
  6 10  1  0  0  0  0
  6 15  1  0  0  0  0
  6 16  1  0  0  0  0
  7  8  2  0  0  0  0
  7  9  1  0  0  0  0
 11 14  1  0  0  0  0
M  END
> <PUBCHEM_COMPOUND_CID>
135398634

> <PUBCHEM_CONFORMER_RMSD>
0.4

> <PUBCHEM_CONFORMER_DIVERSEORDER>
1

> <PUBCHEM_MMFF94_PARTIAL_CHARGES>
16
1 -0.57
10 0.56
11 0.04
12 0.27
13 0.37
14 0.15
15 0.4
16 0.4
2 0.03
3 -0.49
4 -0.57
5 -0.57
6 -0.85
7 -0.24
8 0.35
9 0.71

> <PUBCHEM_EFFECTIVE_ROTOR_COUNT>
0

> <PUBCHEM_PHARMACOPHORE_FEATURES>
7
1 1 acceptor
1 2 donor
1 3 donor
1 6 donor
3 2 5 11 cation
5 2 5 7 8 11 rings
6 3 4 7 8 9 10 rings

> <PUBCHEM_HEAVY_ATOM_COUNT>
11

> <PUBCHEM_ATOM_DEF_STEREO_COUNT>
0

> <PUBCHEM_ATOM_UDEF_STEREO_COUNT>
0

> <PUBCHEM_BOND_DEF_STEREO_COUNT>
0

> <PUBCHEM_BOND_UDEF_STEREO_COUNT>
0

> <PUBCHEM_ISOTOPIC_ATOM_COUNT>
0

> <PUBCHEM_COMPONENT_COUNT>
1

> <PUBCHEM_CACTVS_TAUTO_COUNT>
-1

> <PUBCHEM_CONFORMER_ID>
081204EA00000001

> <PUBCHEM_MMFF94_ENERGY>
19.8237

> <PUBCHEM_FEATURE_SELFOVERLAP>
35.692

> <PUBCHEM_SHAPE_FINGERPRINT>
14128692 85 18341615965974198326
16945 1 18266459797903208514
18185500 45 18410575076115478779
193761 8 17762338419668170242
21040471 1 17329710336670807493
23552423 10 18048598406574020975
241688 4 18410573963729505488
2748010 2 18411415137385107948
29004967 10 18410013255706769003
5084963 1 18201440349730731203

> <PUBCHEM_SHAPE_MULTIPOLES>
195.6
3.28
2.03
0.57
0.34
1.13
0
-1.35
0
0.27
0
-0.02
0
0

> <PUBCHEM_SHAPE_SELFOVERLAP>
431.048

> <PUBCHEM_SHAPE_VOLUME>
105

> <PUBCHEM_COORDINATE_TYPE>
2
5
10

$$$$
