3672
  -OEChem-12222320282D

 33 33  0     1  0  0  0  0  0999 V2000
    4.5981    3.3450    0.0000 O   0  0  0  0  0  0  0  0  0  0  0  0
    5.4641    1.8450    0.0000 O   0  0  0  0  0  0  0  0  0  0  0  0
    2.8660   -2.6550    0.0000 C   0  0  0  0  0  0  0  0  0  0  0  0
    3.7320   -2.1550    0.0000 C   0  0  0  0  0  0  0  0  0  0  0  0
    3.7320   -1.1550    0.0000 C   0  0  0  0  0  0  0  0  0  0  0  0
    3.7320    0.8450    0.0000 C   0  0  0  0  0  0  0  0  0  0  0  0
    3.7320    1.8450    0.0000 C   0  0  3  0  0  0  0  0  0  0  0  0
    2.8660   -3.6550    0.0000 C   0  0  0  0  0  0  0  0  0  0  0  0
    2.0000   -2.1550    0.0000 C   0  0  0  0  0  0  0  0  0  0  0  0
    4.5981   -0.6550    0.0000 C   0  0  0  0  0  0  0  0  0  0  0  0
    2.8660   -0.6550    0.0000 C   0  0  0  0  0  0  0  0  0  0  0  0
    4.5981    0.3450    0.0000 C   0  0  0  0  0  0  0  0  0  0  0  0
    2.8660    0.3450    0.0000 C   0  0  0  0  0  0  0  0  0  0  0  0
    2.8660    2.3450    0.0000 C   0  0  0  0  0  0  0  0  0  0  0  0
    4.5981    2.3450    0.0000 C   0  0  0  0  0  0  0  0  0  0  0  0
    2.8660   -2.0350    0.0000 H   0  0  0  0  0  0  0  0  0  0  0  0
    3.9441   -2.7376    0.0000 H   0  0  0  0  0  0  0  0  0  0  0  0
    4.3426   -2.0473    0.0000 H   0  0  0  0  0  0  0  0  0  0  0  0
    3.7320    2.4650    0.0000 H   0  0  0  0  0  0  0  0  0  0  0  0
    2.2460   -3.6550    0.0000 H   0  0  0  0  0  0  0  0  0  0  0  0
    2.8660   -4.2750    0.0000 H   0  0  0  0  0  0  0  0  0  0  0  0
    3.4860   -3.6550    0.0000 H   0  0  0  0  0  0  0  0  0  0  0  0
    2.3100   -1.6181    0.0000 H   0  0  0  0  0  0  0  0  0  0  0  0
    1.4631   -1.8450    0.0000 H   0  0  0  0  0  0  0  0  0  0  0  0
    1.6900   -2.6919    0.0000 H   0  0  0  0  0  0  0  0  0  0  0  0
    5.1350   -0.9650    0.0000 H   0  0  0  0  0  0  0  0  0  0  0  0
    2.3291   -0.9650    0.0000 H   0  0  0  0  0  0  0  0  0  0  0  0
    5.1350    0.6550    0.0000 H   0  0  0  0  0  0  0  0  0  0  0  0
    2.3291    0.6550    0.0000 H   0  0  0  0  0  0  0  0  0  0  0  0
    3.1760    2.8819    0.0000 H   0  0  0  0  0  0  0  0  0  0  0  0
    2.3291    2.6550    0.0000 H   0  0  0  0  0  0  0  0  0  0  0  0
    2.5560    1.8081    0.0000 H   0  0  0  0  0  0  0  0  0  0  0  0
    5.1350    3.6550    0.0000 H   0  0  0  0  0  0  0  0  0  0  0  0
  1 15  1  0  0  0  0
  1 33  1  0  0  0  0
  2 15  2  0  0  0  0
  3  4  1  0  0  0  0
  3  8  1  0  0  0  0
  3  9  1  0  0  0  0
  3 16  1  0  0  0  0
  4  5  1  0  0  0  0
  4 17  1  0  0  0  0
  4 18  1  0  0  0  0
  5 10  2  0  0  0  0
  5 11  1  0  0  0  0
  6  7  1  0  0  0  0
  6 12  2  0  0  0  0
  6 13  1  0  0  0  0
  7 14  1  0  0  0  0
  7 15  1  0  0  0  0
  7 19  1  0  0  0  0
  8 20  1  0  0  0  0
  8 21  1  0  0  0  0
  8 22  1  0  0  0  0
  9 23  1  0  0  0  0
  9 24  1  0  0  0  0
  9 25  1  0  0  0  0
 10 12  1  0  0  0  0
 10 26  1  0  0  0  0
 11 13  2  0  0  0  0
 11 27  1  0  0  0  0
 12 28  1  0  0  0  0
 13 29  1  0  0  0  0
 14 30  1  0  0  0  0
 14 31  1  0  0  0  0
 14 32  1  0  0  0  0
M  END
> <PUBCHEM_COMPOUND_CID>
3672

> <PUBCHEM_COMPOUND_CANONICALIZED>
1

> <PUBCHEM_CACTVS_COMPLEXITY>
203

> <PUBCHEM_CACTVS_HBOND_ACCEPTOR>
2

> <PUBCHEM_CACTVS_HBOND_DONOR>
1

> <PUBCHEM_CACTVS_ROTATABLE_BOND>
4

> <PUBCHEM_CACTVS_SUBSKEYS>
AAADceBwMAAAAAAAAAAAAAAAAAAAAAAAAAAwAAAAAAAAAAABAAAAGgAACAAADQCAmAAyCIAAAgCIAiDSCAACAAAgAAAIiAEAAIgIIDKAFRCAYAAkwAEIiAeIyOCOwAAAAAAAAACAAAAAAAAAAAAAAAAAAA==

> <PUBCHEM_IUPAC_OPENEYE_NAME>
2-(4-isobutylphenyl)propanoic acid

> <PUBCHEM_IUPAC_CAS_NAME>
2-[4-(2-methylpropyl)phenyl]propanoic acid

> <PUBCHEM_IUPAC_NAME_MARKUP>
2-[4-(2-methylpropyl)phenyl]propanoic acid

> <PUBCHEM_IUPAC_NAME>
2-[4-(2-methylpropyl)phenyl]propanoic acid

> <PUBCHEM_IUPAC_SYSTEMATIC_NAME>
2-[4-(2-methylpropyl)phenyl]propanoic acid

> <PUBCHEM_IUPAC_TRADITIONAL_NAME>
2-(4-isobutylphenyl)propionic acid

> <PUBCHEM_IUPAC_INCHI>
InChI=1S/C13H18O2/c1-9(2)8-11-4-6-12(7-5-11)10(3)13(14)15/h4-7,9-10H,8H2,1-3H3,(H,14,15)

> <PUBCHEM_IUPAC_INCHIKEY>
HEFNNWSXXWATRW-UHFFFAOYSA-N

> <PUBCHEM_XLOGP3>
3.5

> <PUBCHEM_EXACT_MASS>
206.130679813

> <PUBCHEM_MOLECULAR_FORMULA>
C13H18O2

> <PUBCHEM_MOLECULAR_WEIGHT>
206.28

> <PUBCHEM_OPENEYE_CAN_SMILES>
CC(C)CC1=CC=C(C=C1)C(C)C(=O)O

> <PUBCHEM_OPENEYE_ISO_SMILES>
CC(C)CC1=CC=C(C=C1)C(C)C(=O)O

> <PUBCHEM_CACTVS_TPSA>
37.3

> <PUBCHEM_MONOISOTOPIC_WEIGHT>
206.130679813

> <PUBCHEM_TOTAL_CHARGE>
0

> <PUBCHEM_HEAVY_ATOM_COUNT>
15

> <PUBCHEM_ATOM_DEF_STEREO_COUNT>
0

> <PUBCHEM_ATOM_UDEF_STEREO_COUNT>
1

> <PUBCHEM_BOND_DEF_STEREO_COUNT>
0

> <PUBCHEM_BOND_UDEF_STEREO_COUNT>
0

> <PUBCHEM_ISOTOPIC_ATOM_COUNT>
0

> <PUBCHEM_COMPONENT_COUNT>
1

> <PUBCHEM_CACTVS_TAUTO_COUNT>
1

> <PUBCHEM_COORDINATE_TYPE>
1
5
255

> <PUBCHEM_BONDANNOTATIONS>
10  12  8
11  13  8
5  10  8
5  11  8
6  12  8
6  13  8
7  14  3

$$$$
