7964
  -OEChem-07272518513D

 12 12  0     0  0  0  0  0  0999 V2000
   -2.6710    0.0000   -0.0002 Cl  0  0  0  0  0  0  0  0  0  0  0  0
   -0.9497    0.0001    0.0002 C   0  0  0  0  0  0  0  0  0  0  0  0
   -0.2523    1.2080    0.0000 C   0  0  0  0  0  0  0  0  0  0  0  0
   -0.2523   -1.2079    0.0000 C   0  0  0  0  0  0  0  0  0  0  0  0
    1.1426    1.2079    0.0000 C   0  0  0  0  0  0  0  0  0  0  0  0
    1.1426   -1.2080    0.0000 C   0  0  0  0  0  0  0  0  0  0  0  0
    1.8401    0.0000    0.0000 C   0  0  0  0  0  0  0  0  0  0  0  0
   -0.7824    2.1570    0.0000 H   0  0  0  0  0  0  0  0  0  0  0  0
   -0.7825   -2.1569   -0.0001 H   0  0  0  0  0  0  0  0  0  0  0  0
    1.6859    2.1484   -0.0001 H   0  0  0  0  0  0  0  0  0  0  0  0
    1.6858   -2.1485   -0.0002 H   0  0  0  0  0  0  0  0  0  0  0  0
    2.9262    0.0000   -0.0001 H   0  0  0  0  0  0  0  0  0  0  0  0
  1  2  1  0  0  0  0
  2  3  2  0  0  0  0
  2  4  1  0  0  0  0
  3  5  1  0  0  0  0
  3  8  1  0  0  0  0
  4  6  2  0  0  0  0
  4  9  1  0  0  0  0
  5  7  2  0  0  0  0
  5 10  1  0  0  0  0
  6  7  1  0  0  0  0
  6 11  1  0  0  0  0
  7 12  1  0  0  0  0
M  END
> <PUBCHEM_COMPOUND_CID>
7964

> <PUBCHEM_CONFORMER_RMSD>
0.4

> <PUBCHEM_CONFORMER_DIVERSEORDER>
1

> <PUBCHEM_MMFF94_PARTIAL_CHARGES>
12
1 -0.18
10 0.15
11 0.15
12 0.15
2 0.18
3 -0.15
4 -0.15
5 -0.15
6 -0.15
7 -0.15
8 0.15
9 0.15

> <PUBCHEM_EFFECTIVE_ROTOR_COUNT>
0

> <PUBCHEM_PHARMACOPHORE_FEATURES>
1
6 2 3 4 5 6 7 rings

> <PUBCHEM_HEAVY_ATOM_COUNT>
7

> <PUBCHEM_ATOM_DEF_STEREO_COUNT>
0

> <PUBCHEM_ATOM_UDEF_STEREO_COUNT>
0

> <PUBCHEM_BOND_DEF_STEREO_COUNT>
0

> <PUBCHEM_BOND_UDEF_STEREO_COUNT>
0

> <PUBCHEM_ISOTOPIC_ATOM_COUNT>
0

> <PUBCHEM_COMPONENT_COUNT>
1

> <PUBCHEM_CACTVS_TAUTO_COUNT>
1

> <PUBCHEM_CONFORMER_ID>
00001F1C00000001

> <PUBCHEM_MMFF94_ENERGY>
13.9628

> <PUBCHEM_FEATURE_SELFOVERLAP>
5.074

> <PUBCHEM_SHAPE_FINGERPRINT>
18185500 45 18341608209331794495
20096714 4 18339361988601407978
21040471 1 18194682798336869732
23552423 10 17829059718799415134
29004967 10 18334580126775269761

> <PUBCHEM_SHAPE_MULTIPOLES>
145.93
2.71
1.45
0.62
1.59
0
0
0
0
-0.38
0
0.01
0
0

> <PUBCHEM_SHAPE_SELFOVERLAP>
290.936

> <PUBCHEM_SHAPE_VOLUME>
85.3

> <PUBCHEM_COORDINATE_TYPE>
2
5
10

$$$$
