C:/Users/charl/WebstormProjects/aims/src/molecules/sdf/rifamide.sdf
__Jmol-16.12022419023D 1   1.00000     0.00000     0
Jmol version 16.2.5  2024-04-16 21:43 EXTRACT: ({0:115})
116119  0  0  0  0            999 V2000
   -1.4973    1.3606   -1.5417 C   0  0  0  0  0  0
   -0.5147    2.1030   -2.1564 C   0  0  0  0  0  0
   -1.5784    3.6995   -0.9402 C   0  0  1  0  0  0
   -0.6868   -0.6324   -2.6484 C   0  0  0  0  0  0
   -1.6129   -0.0440   -1.7142 C   0  0  0  0  0  0
   -0.4978    3.4572   -1.8790 O   0  0  0  0  0  0
    0.2920    0.1916   -3.2842 C   0  0  0  0  0  0
   -2.2464    2.3560   -0.7904 C   0  0  0  0  0  0
    0.4199    1.5525   -3.0199 C   0  0  0  0  0  0
    3.1285    2.2569    1.4035 C   0  0  1  0  0  0
   -1.6470   -4.1747   -2.6252 N   0  0  0  0  0  0
   -1.7348   -2.8198   -2.2721 C   0  0  0  0  0  0
    1.9435    1.3215    0.9131 C   0  0  1  0  0  0
   -2.5364   -0.9125   -1.0509 C   0  0  0  0  0  0
   -2.1485   -5.2788   -1.9816 C   0  0  0  0  0  0
    1.7788   -1.4218    0.3494 C   0  0  1  0  0  0
    2.5676   -0.0441    0.4160 C   0  0  1  0  0  0
   -0.7766   -2.0142   -2.8821 C   0  0  0  0  0  0
    3.1131    3.7660    0.9911 C   0  0  1  0  0  0
   -2.6179   -2.2746   -1.3471 C   0  0  0  0  0  0
    2.5633   -2.4655   -0.5592 C   0  0  2  0  0  0
   -1.3664   -6.4872   -2.3839 C   0  0  0  0  0  0
   -3.8637    0.1014    2.2374 C   0  0  0  0  0  0
   -1.1888    4.1366    0.3933 O   0  0  0  0  0  0
    3.3018    2.1597    2.8308 O   0  0  0  0  0  0
   -3.4523   -0.4479   -0.1126 O   0  0  0  0  0  0
    0.1402    4.4971    0.5243 C   0  0  0  0  0  0
    4.3529    1.5709    3.5015 C   0  0  0  0  0  0
    0.7711    4.4702    1.7056 C   0  0  0  0  0  0
    2.2351    4.7435    1.8359 C   0  0  2  0  0  0
    1.0224   -5.6898   -1.7736 C   0  0  0  0  0  0
   -3.4135    0.1875    3.5571 N   0  0  0  0  0  0
   -3.2606    2.1454   -0.1392 O   0  0  0  0  0  0
   -0.0253   -6.5833   -2.2548 C   0  0  0  0  0  0
   -3.0872   -5.3405   -1.2070 O   0  0  0  0  0  0
   -2.9637   -0.6427    1.2430 C   0  0  2  0  0  0
    2.3500   -4.0226   -0.5077 C   0  0  2  0  0  0
   -4.9011    0.6437    1.8985 O   0  0  0  0  0  0
    1.0246   -4.6145   -0.9543 C   0  0  0  0  0  0
    4.3892    1.6405    4.7206 O   0  0  0  0  0  0
    1.1656   -0.3169   -4.2384 O   0  0  0  0  0  0
    3.1344    0.1960   -0.8908 O   0  0  0  0  0  0
    0.1525   -2.6903   -3.6780 O   0  0  0  0  0  0
    3.9680   -2.2899   -0.3530 O   0  0  0  0  0  0
   -2.5305    4.7343   -1.5300 C   0  0  0  0  0  0
    1.5239    2.3840   -3.6276 C   0  0  0  0  0  0
    0.8556    1.1341    1.9715 C   0  0  0  0  0  0
    1.5183   -1.9902    1.7496 C   0  0  0  0  0  0
    2.4649    6.0866    1.3608 O   0  0  0  0  0  0
    4.5631    4.2907    0.9888 C   0  0  0  0  0  0
   -2.1602   -7.5980   -3.0086 C   0  0  0  0  0  0
   -3.8736    1.3308    4.3507 C   0  0  2  0  0  0
   -2.7062   -0.8966    4.2296 C   0  0  2  0  0  0
    5.4517    0.8345    2.7612 C   0  0  0  0  0  0
    2.7879   -4.7147    0.7919 C   0  0  0  0  0  0
    2.0943    7.1061    2.2997 C   0  0  0  0  0  0
   -2.9761    2.5338    4.0855 C   0  0  0  0  0  0
   -3.6169   -2.0949    4.4766 C   0  0  0  0  0  0
    4.0153    1.8835    0.9093 H   0  0  0  0  0  0
   -0.8771   -4.3528   -3.2637 H   0  0  0  0  0  0
    1.4811    1.7972    0.0464 H   0  0  0  0  0  0
    0.8060   -1.2511   -0.1118 H   0  0  0  0  0  0
    3.4156   -0.2478    1.0681 H   0  0  0  0  0  0
    2.8020    3.8170   -0.0613 H   0  0  0  0  0  0
   -3.3647   -2.8970   -0.8559 H   0  0  0  0  0  0
    2.3765   -2.1728   -1.5970 H   0  0  0  0  0  0
    0.6404    4.7940   -0.3928 H   0  0  0  0  0  0
    0.2179    4.2280    2.6033 H   0  0  0  0  0  0
    2.5293    4.6821    2.8926 H   0  0  0  0  0  0
    1.9954   -6.0396   -2.1010 H   0  0  0  0  0  0
    0.4063   -7.5169   -2.6106 H   0  0  0  0  0  0
   -2.9397   -1.7066    1.4915 H   0  0  0  0  0  0
   -1.9599   -0.2213    1.3363 H   0  0  0  0  0  0
    3.0992   -4.3776   -1.2311 H   0  0  0  0  0  0
    0.1119   -4.2227   -0.5241 H   0  0  0  0  0  0
    1.4990   -1.1698   -3.9131 H   0  0  0  0  0  0
    3.2985    1.1440   -1.0279 H   0  0  0  0  0  0
    0.2180   -2.2029   -4.5138 H   0  0  0  0  0  0
    4.1808   -1.4154   -0.7435 H   0  0  0  0  0  0
   -2.9491    4.3992   -2.4865 H   0  0  0  0  0  0
   -1.9992    5.6744   -1.7237 H   0  0  0  0  0  0
   -3.3529    4.9603   -0.8485 H   0  0  0  0  0  0
    1.4488    2.3821   -4.7205 H   0  0  0  0  0  0
    2.5005    1.9773   -3.3361 H   0  0  0  0  0  0
    1.5006    3.4241   -3.2959 H   0  0  0  0  0  0
    1.2399    0.6685    2.8788 H   0  0  0  0  0  0
    0.0411    0.5256    1.5718 H   0  0  0  0  0  0
    0.4030    2.0676    2.2811 H   0  0  0  0  0  0
    2.4543   -2.2515    2.2576 H   0  0  0  0  0  0
    0.8880   -2.8811    1.6894 H   0  0  0  0  0  0
    0.9733   -1.3208    2.4038 H   0  0  0  0  0  0
    4.9630    4.3632    2.0073 H   0  0  0  0  0  0
    4.6373    5.2796    0.5316 H   0  0  0  0  0  0
    5.2274    3.6391    0.4181 H   0  0  0  0  0  0
   -2.0543   -8.5249   -2.4342 H   0  0  0  0  0  0
   -1.8093   -7.7856   -4.0285 H   0  0  0  0  0  0
   -3.2237   -7.3635   -3.0739 H   0  0  0  0  0  0
   -3.8601    1.0736    5.4168 H   0  0  0  0  0  0
   -4.9048    1.5858    4.0957 H   0  0  0  0  0  0
   -2.3018   -0.5298    5.1815 H   0  0  0  0  0  0
   -1.8532   -1.2056    3.6170 H   0  0  0  0  0  0
    5.4840   -0.1956    3.1220 H   0  0  0  0  0  0
    6.4067    1.3292    2.9704 H   0  0  0  0  0  0
    5.3426    0.7896    1.6792 H   0  0  0  0  0  0
    2.9569   -5.7811    0.6164 H   0  0  0  0  0  0
    2.0330   -4.6571    1.5811 H   0  0  0  0  0  0
    3.7223   -4.3079    1.1813 H   0  0  0  0  0  0
    2.7245    7.0431    3.1943 H   0  0  0  0  0  0
    1.0372    7.0260    2.5818 H   0  0  0  0  0  0
    2.2512    8.0792    1.8321 H   0  0  0  0  0  0
   -3.0199    2.8354    3.0306 H   0  0  0  0  0  0
   -1.9323    2.3025    4.3142 H   0  0  0  0  0  0
   -3.2795    3.3874    4.6940 H   0  0  0  0  0  0
   -3.9408   -2.5472    3.5362 H   0  0  0  0  0  0
   -4.5212   -1.8025    5.0251 H   0  0  0  0  0  0
   -3.0992   -2.8608    5.0550 H   0  0  0  0  0  0
  1  2  2
  1  5  1
  1  8  1
  2  6  1
  2  9  1
  3  8  1
  3 24  1
  3 45  1
  3  6  1
  4  5  2
  4  7  1
  4 18  1
  5 14  1
  7 41  1
  7  9  2
  8 33  2
  9 46  1
 10 19  1
 10 13  1
 10 25  1
 11 12  1
 11 15  1
 12 20  1
 12 18  2
 13 17  1
 13 47  1
 14 20  2
 14 26  1
 15 22  1
 15 35  2
 16 17  1
 16 21  1
 16 48  1
 17 42  1
 18 43  1
 19 30  1
 19 50  1
 21 44  1
 21 37  1
 22 34  2
 22 51  1
 23 36  1
 23 32  1
 23 38  2
 24 27  1
 25 28  1
 26 36  1
 27 29  2
 28 40  2
 28 54  1
 29 30  1
 30 49  1
 31 34  1
 31 39  2
 32 52  1
 32 53  1
 37 39  1
 37 55  1
 49 56  1
 52 57  1
 53 58  1
 59 10  1
 60 11  1
 61 13  1
 62 16  1
 63 17  1
 64 19  1
 65 20  1
 66 21  1
 67 27  1
 68 29  1
 69 30  1
 70 31  1
 71 34  1
 72 36  1
 73 36  1
 74 37  1
 75 39  1
 76 41  1
 77 42  1
 78 43  1
 79 44  1
 80 45  1
 81 45  1
 82 45  1
 83 46  1
 84 46  1
 85 46  1
 86 47  1
 87 47  1
 88 47  1
 89 48  1
 90 48  1
 91 48  1
 92 50  1
 93 50  1
 94 50  1
 95 51  1
 96 51  1
 97 51  1
 98 52  1
 99 52  1
100 53  1
101 53  1
102 54  1
103 54  1
104 54  1
105 55  1
106 55  1
107 55  1
108 56  1
109 56  1
110 56  1
111 57  1
112 57  1
113 57  1
114 58  1
115 58  1
116 58  1
M  END
> <PUBCHEM_COMPOUND_CID>
6433345


> <JMOL_ATOM_NAMES>
116
1 C1
2 C2
3 C3
4 C4
5 C5
6 O6
7 C7
8 C8
9 C9
10 C10
11 N11
12 C12
13 C13
14 C14
15 C15
16 C16
17 C17
18 C18
19 C19
20 C20
21 C21
22 C22
23 C23
24 O24
25 O25
26 O26
27 C27
28 C28
29 C29
30 C30
31 C31
32 N32
33 O33
34 C34
35 O35
36 C36
37 C37
38 O38
39 C39
40 O40
41 O41
42 O42
43 O43
44 O44
45 C45
46 C46
47 C47
48 C48
49 O49
50 C50
51 C51
52 C52
53 C53
54 C54
55 C55
56 C56
57 C57
58 C58
59 H59
60 H60
61 H61
62 H62
63 H63
64 H64
65 H65
66 H66
67 H67
68 H68
69 H69
70 H70
71 H71
72 H72
73 H73
74 H74
75 H75
76 H76
77 H77
78 H78
79 H79
80 H80
81 H81
82 H82
83 H83
84 H84
85 H85
86 H86
87 H87
88 H88
89 H89
90 H90
91 H91
92 H92
93 H93
94 H94
95 H95
96 H96
97 H97
98 H98
99 H99
100 H100
101 H101
102 H102
103 H103
104 H104
105 H105
106 H106
107 H107
108 H108
109 H109
110 H110
111 H111
112 H112
113 H113
114 H114
115 H115
116 H116


$$$$
